/*---------------------------------------------------------------------------*\
| =========                 |                                                 |
| \\      /  F ield         | OpenFOAM: The Open Source CFD Toolbox           |
|  \\    /   O peration     | Version:  2406                                  |
|   \\  /    A nd           | Website:  www.openfoam.com                      |
|    \\/     M anipulation  |                                                 |
\*---------------------------------------------------------------------------*/
Build  : _be01ca78-20240625 OPENFOAM=2406 version=2406
Arch   : "LSB;label=32;scalar=64"
Exec   : setFields
Date   : Jul 19 2025
Time   : 03:45:48
Host   : 86d0898f4e20
PID    : 9372
I/O    : uncollated
Case   : /home/openfoam/biofilmFoam/dev/biofilmFoam/3d-A
nProcs : 1
trapFpe: Floating point exception trapping enabled (FOAM_SIGFPE).
fileModificationChecking : Monitoring run-time modified files using timeStampMaster (fileModificationSkew 5, maxFileModificationPolls 20)
allowSystemOperations : Allowing user-supplied system call operations

// * * * * * * * * * * * * * * * * * * * * * * * * * * * * * * * * * * * * * //
Create time

Create mesh for time = 0

Reading setFieldsDict

Setting volume field default values
    - set internal values of volScalarField: M = 0

Setting field region values

    Adding all elements of cell sets: (inoculum)
    Selected 6/14400 cells
    - set internal values of volScalarField: M = 0.3

End

