/*---------------------------------------------------------------------------*\
| =========                 |                                                 |
| \\      /  F ield         | OpenFOAM: The Open Source CFD Toolbox           |
|  \\    /   O peration     | Version:  2406                                  |
|   \\  /    A nd           | Website:  www.openfoam.com                      |
|    \\/     M anipulation  |                                                 |
\*---------------------------------------------------------------------------*/
Build  : _be01ca78-20240625 OPENFOAM=2406 version=2406
Arch   : "LSB;label=32;scalar=64"
Exec   : biofilmFoam2D
Date   : Jul 19 2025
Time   : 03:45:49
Host   : 86d0898f4e20
PID    : 9373
I/O    : uncollated
Case   : /home/openfoam/biofilmFoam/dev/biofilmFoam/3d-A
nProcs : 1
trapFpe: Floating point exception trapping enabled (FOAM_SIGFPE).
fileModificationChecking : Monitoring run-time modified files using timeStampMaster (fileModificationSkew 5, maxFileModificationPolls 20)
allowSystemOperations : Allowing user-supplied system call operations

// * * * * * * * * * * * * * * * * * * * * * * * * * * * * * * * * * * * * * //
Create time

Create mesh for time = 0

Reading field C

Reading field M

Reading field A

Reading transportProperties

Reading parameter d1 

Reading parameter mmax 

Reading parameter c0 

Reading parameter mum 

Reading parameter Yxs 

Reading parameter ms 

Reading parameter Ks 

Reading parameter eps 

Reading parameter a 

Reading parameter b 

Calculating parameters ki 

Calculating parameters Ki 

Reading biofilm permeability

Reading biofilm porosity


PIMPLE: Operating solver in PISO mode


Starting time loop

deltaT = 5e-09
Time = 5e-09
DICPCG:  Solving for C, Initial residual = 1, Final residual = 2.05245e-09, No Iterations 2
DICPCG:  Solving for M, Initial residual = 3.25132e-09, Final residual = 3.25132e-09, No Iterations 0
DICPCG:  Solving for A, Initial residual = 1.8779e-09, Final residual = 1.8779e-09, No Iterations 0
C in [3.99993;4]
M in [0;0.3]
A in [0;0]
ExecutionTime = 0.18 s  ClockTime = 0 s

deltaT = 6e-09
Time = 1.1e-08
DICPCG:  Solving for C, Initial residual = 0.231097, Final residual = 1.73864e-10, No Iterations 2
DICPCG:  Solving for M, Initial residual = 2.52453e-09, Final residual = 2.52453e-09, No Iterations 0
DICPCG:  Solving for A, Initial residual = 1.8779e-09, Final residual = 1.8779e-09, No Iterations 0
C in [3.99985;4]
M in [0;0.3]
A in [0;0]
ExecutionTime = 0.2 s  ClockTime = 0 s

deltaT = 7.2e-09
Time = 1.82e-08
DICPCG:  Solving for C, Initial residual = 0.140864, Final residual = 2.21152e-10, No Iterations 2
DICPCG:  Solving for M, Initial residual = 3.02939e-09, Final residual = 3.02939e-09, No Iterations 0
DICPCG:  Solving for A, Initial residual = 1.8779e-09, Final residual = 1.8779e-09, No Iterations 0
C in [3.99975;4]
M in [0;0.3]
A in [0;0]
ExecutionTime = 0.22 s  ClockTime = 0 s

deltaT = 8.64e-09
Time = 2.684e-08
DICPCG:  Solving for C, Initial residual = 0.106308, Final residual = 3.48906e-10, No Iterations 2
DICPCG:  Solving for M, Initial residual = 3.63521e-09, Final residual = 3.63521e-09, No Iterations 0
DICPCG:  Solving for A, Initial residual = 1.8779e-09, Final residual = 1.8779e-09, No Iterations 0
C in [3.99964;4]
M in [0;0.3]
A in [0;0]
ExecutionTime = 0.24 s  ClockTime = 0 s

deltaT = 1.0368e-08
Time = 3.7208e-08
DICPCG:  Solving for C, Initial residual = 0.088285, Final residual = 6.06588e-10, No Iterations 2
DICPCG:  Solving for M, Initial residual = 4.36216e-09, Final residual = 4.36216e-09, No Iterations 0
DICPCG:  Solving for A, Initial residual = 1.8779e-09, Final residual = 1.8779e-09, No Iterations 0
C in [3.9995;4]
M in [0;0.3]
A in [0;0]
ExecutionTime = 0.27 s  ClockTime = 0 s

deltaT = 1.24416e-08
Time = 4.96496e-08
DICPCG:  Solving for C, Initial residual = 0.0773718, Final residual = 1.114e-09, No Iterations 2
DICPCG:  Solving for M, Initial residual = 5.23448e-09, Final residual = 5.23448e-09, No Iterations 0
DICPCG:  Solving for A, Initial residual = 1.8779e-09, Final residual = 1.8779e-09, No Iterations 0
C in [3.99935;4]
M in [0;0.3]
A in [0;0]
ExecutionTime = 0.29 s  ClockTime = 0 s

deltaT = 1.49299e-08
Time = 6.45795e-08
DICPCG:  Solving for C, Initial residual = 0.0701463, Final residual = 2.11699e-09, No Iterations 2
DICPCG:  Solving for M, Initial residual = 6.28122e-09, Final residual = 6.28122e-09, No Iterations 0
DICPCG:  Solving for A, Initial residual = 1.8779e-09, Final residual = 1.8779e-09, No Iterations 0
C in [3.99918;4]
M in [0;0.3]
A in [0;0]
ExecutionTime = 0.31 s  ClockTime = 0 s

deltaT = 1.79159e-08
Time = 8.24954e-08
DICPCG:  Solving for C, Initial residual = 0.0650836, Final residual = 4.11287e-09, No Iterations 2
DICPCG:  Solving for M, Initial residual = 7.53725e-09, Final residual = 7.53725e-09, No Iterations 0
DICPCG:  Solving for A, Initial residual = 1.8779e-09, Final residual = 1.8779e-09, No Iterations 0
C in [3.99898;4]
M in [0;0.3]
A in [0;0]
ExecutionTime = 0.33 s  ClockTime = 0 s

deltaT = 2.14991e-08
Time = 1.03995e-07
DICPCG:  Solving for C, Initial residual = 0.0613942, Final residual = 8.09839e-09, No Iterations 2
DICPCG:  Solving for M, Initial residual = 9.04441e-09, Final residual = 9.04441e-09, No Iterations 0
DICPCG:  Solving for A, Initial residual = 1.8779e-09, Final residual = 1.8779e-09, No Iterations 0
C in [3.99876;4]
M in [0;0.3]
A in [0;0]
ExecutionTime = 0.34 s  ClockTime = 0 s

deltaT = 2.57989e-08
Time = 1.29793e-07
DICPCG:  Solving for C, Initial residual = 0.0586389, Final residual = 1.60941e-08, No Iterations 2
DICPCG:  Solving for M, Initial residual = 1.08529e-08, Final residual = 1.08529e-08, No Iterations 0
DICPCG:  Solving for A, Initial residual = 1.8779e-09, Final residual = 1.8779e-09, No Iterations 0
C in [3.99851;4]
M in [0;0.3]
A in [0;0]
ExecutionTime = 0.37 s  ClockTime = 0 s

deltaT = 3.09587e-08
Time = 1.60752e-07
DICPCG:  Solving for C, Initial residual = 0.0565366, Final residual = 3.21354e-08, No Iterations 2
DICPCG:  Solving for M, Initial residual = 1.3023e-08, Final residual = 1.3023e-08, No Iterations 0
DICPCG:  Solving for A, Initial residual = 1.8779e-09, Final residual = 1.8779e-09, No Iterations 0
C in [3.99824;4]
M in [0;0.3]
A in [0;0]
ExecutionTime = 0.39 s  ClockTime = 0 s

deltaT = 3.71504e-08
Time = 1.97902e-07
DICPCG:  Solving for C, Initial residual = 0.0549068, Final residual = 6.43705e-08, No Iterations 2
DICPCG:  Solving for M, Initial residual = 1.56269e-08, Final residual = 1.56269e-08, No Iterations 0
DICPCG:  Solving for A, Initial residual = 1.8779e-09, Final residual = 1.8779e-09, No Iterations 0
C in [3.99795;4]
M in [0;0.3]
A in [0;0]
ExecutionTime = 0.41 s  ClockTime = 0 s

deltaT = 4.45805e-08
Time = 2.42483e-07
DICPCG:  Solving for C, Initial residual = 0.0536222, Final residual = 1.27694e-07, No Iterations 2
DICPCG:  Solving for M, Initial residual = 1.87515e-08, Final residual = 1.87515e-08, No Iterations 0
DICPCG:  Solving for A, Initial residual = 1.8779e-09, Final residual = 1.8779e-09, No Iterations 0
C in [3.99764;4]
M in [0;0.3]
A in [0;0]
ExecutionTime = 0.43 s  ClockTime = 0 s

deltaT = 5.34966e-08
Time = 2.9598e-07
DICPCG:  Solving for C, Initial residual = 0.052606, Final residual = 2.49575e-07, No Iterations 2
DICPCG:  Solving for M, Initial residual = 2.25007e-08, Final residual = 2.25007e-08, No Iterations 0
DICPCG:  Solving for A, Initial residual = 1.8779e-09, Final residual = 1.8779e-09, No Iterations 0
C in [3.99731;4]
M in [0;0.3]
A in [0;0]
ExecutionTime = 0.45 s  ClockTime = 0 s

deltaT = 6.41958e-08
Time = 3.60175e-07
DICPCG:  Solving for C, Initial residual = 0.051803, Final residual = 4.77998e-07, No Iterations 2
DICPCG:  Solving for M, Initial residual = 2.69995e-08, Final residual = 2.69995e-08, No Iterations 0
DICPCG:  Solving for A, Initial residual = 1.8779e-09, Final residual = 1.8779e-09, No Iterations 0
C in [3.99697;4]
M in [0;0.3]
A in [0;0]
ExecutionTime = 0.47 s  ClockTime = 0 s

deltaT = 7.7035e-08
Time = 4.3721e-07
DICPCG:  Solving for C, Initial residual = 0.0511589, Final residual = 8.94421e-07, No Iterations 2
DICPCG:  Solving for M, Initial residual = 3.23977e-08, Final residual = 3.23977e-08, No Iterations 0
DICPCG:  Solving for A, Initial residual = 1.8779e-09, Final residual = 1.8779e-09, No Iterations 0
C in [3.99661;4]
M in [0;0.3]
A in [0;0]
ExecutionTime = 0.49 s  ClockTime = 0 s

deltaT = 9.2442e-08
Time = 5.29652e-07
DICPCG:  Solving for C, Initial residual = 0.0506531, Final residual = 8.13294e-09, No Iterations 3
DICPCG:  Solving for M, Initial residual = 3.88753e-08, Final residual = 3.88753e-08, No Iterations 0
DICPCG:  Solving for A, Initial residual = 1.8779e-09, Final residual = 1.8779e-09, No Iterations 0
C in [3.99625;4]
M in [0;0.3]
A in [0;0]
ExecutionTime = 0.51 s  ClockTime = 0 s

deltaT = 1.1093e-07
Time = 6.40583e-07
DICPCG:  Solving for C, Initial residual = 0.0502531, Final residual = 1.98694e-08, No Iterations 3
DICPCG:  Solving for M, Initial residual = 4.6648e-08, Final residual = 4.6648e-08, No Iterations 0
DICPCG:  Solving for A, Initial residual = 1.8779e-09, Final residual = 1.8779e-09, No Iterations 0
C in [3.99589;4]
M in [0;0.3]
A in [0;0]
ExecutionTime = 0.54 s  ClockTime = 0 s

deltaT = 1.33117e-07
Time = 7.73699e-07
DICPCG:  Solving for C, Initial residual = 0.0499432, Final residual = 4.72389e-08, No Iterations 3
DICPCG:  Solving for M, Initial residual = 5.59748e-08, Final residual = 5.59748e-08, No Iterations 0
DICPCG:  Solving for A, Initial residual = 1.8779e-09, Final residual = 1.8779e-09, No Iterations 0
C in [3.99552;4]
M in [0;0.3]
A in [0;0]
ExecutionTime = 0.56 s  ClockTime = 0 s

deltaT = 1.5974e-07
Time = 9.33439e-07
DICPCG:  Solving for C, Initial residual = 0.0497044, Final residual = 1.08516e-07, No Iterations 3
DICPCG:  Solving for M, Initial residual = 6.71664e-08, Final residual = 6.71664e-08, No Iterations 0
DICPCG:  Solving for A, Initial residual = 1.8779e-09, Final residual = 1.8779e-09, No Iterations 0
C in [3.99515;4]
M in [0;0.3]
A in [0;0]
ExecutionTime = 0.57 s  ClockTime = 0 s

deltaT = 1.91688e-07
Time = 1.12513e-06
DICPCG:  Solving for C, Initial residual = 0.0495315, Final residual = 2.40016e-07, No Iterations 3
DICPCG:  Solving for M, Initial residual = 8.05956e-08, Final residual = 8.05956e-08, No Iterations 0
DICPCG:  Solving for A, Initial residual = 1.8779e-09, Final residual = 1.8779e-09, No Iterations 0
C in [3.99477;4]
M in [0;0.3]
A in [0;0]
ExecutionTime = 0.59 s  ClockTime = 0 s

deltaT = 2.30025e-07
Time = 1.35515e-06
DICPCG:  Solving for C, Initial residual = 0.0494154, Final residual = 5.13978e-07, No Iterations 3
DICPCG:  Solving for M, Initial residual = 9.67096e-08, Final residual = 9.67096e-08, No Iterations 0
DICPCG:  Solving for A, Initial residual = 1.8779e-09, Final residual = 1.8779e-09, No Iterations 0
C in [3.99437;4]
M in [0;0.3]
A in [0;0]
ExecutionTime = 0.62 s  ClockTime = 0 s

deltaT = 2.7603e-07
Time = 1.63118e-06
DICPCG:  Solving for C, Initial residual = 0.0493446, Final residual = 2.6965e-08, No Iterations 4
DICPCG:  Solving for M, Initial residual = 1.16046e-07, Final residual = 1.16046e-07, No Iterations 0
DICPCG:  Solving for A, Initial residual = 1.8779e-09, Final residual = 1.8779e-09, No Iterations 0
C in [3.99396;4]
M in [0;0.3]
A in [0;0]
ExecutionTime = 0.64 s  ClockTime = 0 s

deltaT = 3.31236e-07
Time = 1.96242e-06
DICPCG:  Solving for C, Initial residual = 0.0493213, Final residual = 6.86123e-08, No Iterations 4
DICPCG:  Solving for M, Initial residual = 1.39248e-07, Final residual = 1.39248e-07, No Iterations 0
DICPCG:  Solving for A, Initial residual = 1.8779e-09, Final residual = 1.8779e-09, No Iterations 0
C in [3.99353;4]
M in [0;0.3]
A in [0;0]
ExecutionTime = 0.66 s  ClockTime = 0 s

deltaT = 3.97482e-07
Time = 2.3599e-06
DICPCG:  Solving for C, Initial residual = 0.049328, Final residual = 1.67055e-07, No Iterations 4
DICPCG:  Solving for M, Initial residual = 1.67088e-07, Final residual = 1.67088e-07, No Iterations 0
DICPCG:  Solving for A, Initial residual = 1.8779e-09, Final residual = 1.8779e-09, No Iterations 0
C in [3.99308;4]
M in [0;0.3]
A in [0;0]
ExecutionTime = 0.68 s  ClockTime = 0 s

deltaT = 4.76977e-07
Time = 2.83688e-06
DICPCG:  Solving for C, Initial residual = 0.0493818, Final residual = 3.88014e-07, No Iterations 4
DICPCG:  Solving for M, Initial residual = 2.00495e-07, Final residual = 2.00495e-07, No Iterations 0
DICPCG:  Solving for A, Initial residual = 1.8779e-09, Final residual = 1.8779e-09, No Iterations 0
C in [3.99262;4]
M in [0;0.3]
A in [0;0]
ExecutionTime = 0.7 s  ClockTime = 0 s

deltaT = 5.72371e-07
Time = 3.40925e-06
DICPCG:  Solving for C, Initial residual = 0.0494576, Final residual = 8.61333e-07, No Iterations 4
DICPCG:  Solving for M, Initial residual = 2.4058e-07, Final residual = 2.4058e-07, No Iterations 0
DICPCG:  Solving for A, Initial residual = 1.8779e-09, Final residual = 1.8779e-09, No Iterations 0
C in [3.99213;4]
M in [0;0.3]
A in [0;0]
ExecutionTime = 0.73 s  ClockTime = 0 s

deltaT = 6.86842e-07
Time = 4.09609e-06
DICPCG:  Solving for C, Initial residual = 0.0495702, Final residual = 1.37869e-07, No Iterations 5
DICPCG:  Solving for M, Initial residual = 2.8868e-07, Final residual = 2.8868e-07, No Iterations 0
DICPCG:  Solving for A, Initial residual = 1.8779e-09, Final residual = 1.8779e-09, No Iterations 0
C in [3.99163;4]
M in [0;0.3]
A in [0;0]
ExecutionTime = 0.75 s  ClockTime = 0 s

deltaT = 8.24212e-07
Time = 4.9203e-06
DICPCG:  Solving for C, Initial residual = 0.0497112, Final residual = 3.34503e-07, No Iterations 5
DICPCG:  Solving for M, Initial residual = 3.46398e-07, Final residual = 3.46398e-07, No Iterations 0
DICPCG:  Solving for A, Initial residual = 1.8779e-09, Final residual = 1.8779e-09, No Iterations 0
C in [3.99111;4]
M in [0;0.3]
A in [0;0]
ExecutionTime = 0.77 s  ClockTime = 0 s

deltaT = 9.89061e-07
Time = 5.90936e-06
DICPCG:  Solving for C, Initial residual = 0.0498737, Final residual = 7.67891e-07, No Iterations 5
DICPCG:  Solving for M, Initial residual = 4.15657e-07, Final residual = 4.15657e-07, No Iterations 0
DICPCG:  Solving for A, Initial residual = 1.8779e-09, Final residual = 1.8779e-09, No Iterations 0
C in [3.99058;4]
M in [0;0.3]
A in [0;0]
ExecutionTime = 0.8 s  ClockTime = 1 s

deltaT = 1.18686e-06
Time = 7.09622e-06
DICPCG:  Solving for C, Initial residual = 0.0500584, Final residual = 2.16498e-07, No Iterations 6
DICPCG:  Solving for M, Initial residual = 4.98756e-07, Final residual = 4.98756e-07, No Iterations 0
DICPCG:  Solving for A, Initial residual = 1.8779e-09, Final residual = 1.8779e-09, No Iterations 0
C in [3.99004;4]
M in [0;0.3]
A in [0;0]
ExecutionTime = 0.83 s  ClockTime = 1 s

deltaT = 1.42422e-06
Time = 8.52044e-06
DICPCG:  Solving for C, Initial residual = 0.0502555, Final residual = 5.30888e-07, No Iterations 6
DICPCG:  Solving for M, Initial residual = 5.98468e-07, Final residual = 5.98468e-07, No Iterations 0
DICPCG:  Solving for A, Initial residual = 1.8779e-09, Final residual = 1.8779e-09, No Iterations 0
C in [3.9895;4]
M in [0;0.3]
A in [0;0]
ExecutionTime = 0.86 s  ClockTime = 1 s

deltaT = 1.70905e-06
Time = 1.02295e-05
DICPCG:  Solving for C, Initial residual = 0.0504677, Final residual = 2.15557e-07, No Iterations 7
DICPCG:  Solving for M, Initial residual = 7.18117e-07, Final residual = 7.18117e-07, No Iterations 0
DICPCG:  Solving for A, Initial residual = 1.8779e-09, Final residual = 1.8779e-09, No Iterations 0
C in [3.98894;4]
M in [0;0.3]
A in [0;0]
ExecutionTime = 0.89 s  ClockTime = 1 s

deltaT = 2.05086e-06
Time = 1.22804e-05
DICPCG:  Solving for C, Initial residual = 0.0506873, Final residual = 5.46578e-07, No Iterations 7
DICPCG:  Solving for M, Initial residual = 8.61689e-07, Final residual = 8.61689e-07, No Iterations 0
DICPCG:  Solving for A, Initial residual = 1.8779e-09, Final residual = 1.8779e-09, No Iterations 0
C in [3.98838;4]
M in [0;0.3]
A in [0;0]
ExecutionTime = 0.93 s  ClockTime = 1 s

deltaT = 2.46099e-06
Time = 1.47413e-05
DICPCG:  Solving for C, Initial residual = 0.0509119, Final residual = 2.86354e-07, No Iterations 8
DICPCG:  Solving for M, Initial residual = 1.03395e-06, Final residual = 5.2844e-27, No Iterations 1
DICPCG:  Solving for A, Initial residual = 1.87791e-09, Final residual = 1.87791e-09, No Iterations 0
C in [3.98781;4]
M in [0;0.300001]
A in [0;0]
ExecutionTime = 0.95 s  ClockTime = 1 s

deltaT = 2.95316e-06
Time = 1.76945e-05
DICPCG:  Solving for C, Initial residual = 0.0511469, Final residual = 7.19284e-07, No Iterations 8
DICPCG:  Solving for M, Initial residual = 1.67856e-06, Final residual = 6.93894e-23, No Iterations 1
DICPCG:  Solving for A, Initial residual = 1.87792e-09, Final residual = 1.87792e-09, No Iterations 0
C in [3.98723;4]
M in [0;0.300003]
A in [0;0]
ExecutionTime = 0.99 s  ClockTime = 1 s

deltaT = 3.54384e-06
Time = 2.12384e-05
DICPCG:  Solving for C, Initial residual = 0.0513881, Final residual = 5.08012e-07, No Iterations 9
DICPCG:  Solving for M, Initial residual = 2.19963e-06, Final residual = 2.07819e-22, No Iterations 1
DICPCG:  Solving for A, Initial residual = 1.87794e-09, Final residual = 1.87794e-09, No Iterations 0
C in [3.98665;4]
M in [0;0.300006]
A in [0;0]
ExecutionTime = 1.01 s  ClockTime = 1 s

deltaT = 4.25243e-06
Time = 2.54908e-05
DICPCG:  Solving for C, Initial residual = 0.0516277, Final residual = 4.06788e-07, No Iterations 10
DICPCG:  Solving for M, Initial residual = 2.71783e-06, Final residual = 9.97524e-23, No Iterations 1
DICPCG:  Solving for A, Initial residual = 1.87796e-09, Final residual = 1.87796e-09, No Iterations 0
C in [3.98606;4]
M in [0;0.300009]
A in [0;0]
ExecutionTime = 1.04 s  ClockTime = 1 s

deltaT = 5.10308e-06
Time = 3.05939e-05
DICPCG:  Solving for C, Initial residual = 0.0518674, Final residual = 3.76363e-07, No Iterations 11
DICPCG:  Solving for M, Initial residual = 3.29455e-06, Final residual = 3.59142e-22, No Iterations 1
DICPCG:  Solving for A, Initial residual = 1.87799e-09, Final residual = 1.87799e-09, No Iterations 0
C in [3.98546;4]
M in [0;0.300013]
A in [0;0]
ExecutionTime = 1.07 s  ClockTime = 1 s

deltaT = 6.1237e-06
Time = 3.67176e-05
DICPCG:  Solving for C, Initial residual = 0.052094, Final residual = 9.68384e-07, No Iterations 11
DICPCG:  Solving for M, Initial residual = 3.96728e-06, Final residual = 4.38287e-26, No Iterations 1
DICPCG:  Solving for A, Initial residual = 1.87802e-09, Final residual = 1.87802e-09, No Iterations 0
C in [3.98484;4]
M in [0;0.300018]
A in [0;0]
ExecutionTime = 1.09 s  ClockTime = 1 s

deltaT = 7.34862e-06
Time = 4.40662e-05
DICPCG:  Solving for C, Initial residual = 0.052299, Final residual = 9.8629e-07, No Iterations 12
DICPCG:  Solving for M, Initial residual = 4.76647e-06, Final residual = 1.57784e-25, No Iterations 1
DICPCG:  Solving for A, Initial residual = 1.87805e-09, Final residual = 1.87805e-09, No Iterations 0
C in [3.98421;4]
M in [0;0.300024]
A in [0;0]
ExecutionTime = 1.12 s  ClockTime = 1 s

deltaT = 8.81835e-06
Time = 5.28845e-05
DICPCG:  Solving for C, Initial residual = 0.0524666, Final residual = 4.62435e-07, No Iterations 14
DICPCG:  Solving for M, Initial residual = 5.72185e-06, Final residual = 4.14071e-22, No Iterations 1
DICPCG:  Solving for A, Initial residual = 1.87809e-09, Final residual = 1.87809e-09, No Iterations 0
C in [3.98356;4]
M in [0;0.30003]
A in [0;0]
ExecutionTime = 1.15 s  ClockTime = 1 s

deltaT = 1.0582e-05
Time = 6.34665e-05
DICPCG:  Solving for C, Initial residual = 0.0525776, Final residual = 5.43636e-07, No Iterations 15
DICPCG:  Solving for M, Initial residual = 6.86672e-06, Final residual = 7.44706e-22, No Iterations 1
DICPCG:  Solving for A, Initial residual = 1.87815e-09, Final residual = 1.87815e-09, No Iterations 0
C in [3.98289;4]
M in [0;0.300039]
A in [0;0]
ExecutionTime = 1.18 s  ClockTime = 1 s

deltaT = 1.26968e-05
Time = 7.61634e-05
DICPCG:  Solving for C, Initial residual = 0.0525998, Final residual = 7.16101e-07, No Iterations 16
DICPCG:  Solving for M, Initial residual = 8.23875e-06, Final residual = 5.95789e-22, No Iterations 1
DICPCG:  Solving for A, Initial residual = 1.87821e-09, Final residual = 1.87821e-09, No Iterations 0
C in [3.98218;4]
M in [0;0.300049]
A in [0;0]
ExecutionTime = 1.21 s  ClockTime = 1 s

deltaT = 1.52346e-05
Time = 9.1398e-05
DICPCG:  Solving for C, Initial residual = 0.0524949, Final residual = 9.34317e-07, No Iterations 17
DICPCG:  Solving for M, Initial residual = 9.88477e-06, Final residual = 6.97776e-25, No Iterations 1
DICPCG:  Solving for A, Initial residual = 1.87828e-09, Final residual = 1.87828e-09, No Iterations 0
C in [3.98145;4]
M in [0;0.30006]
A in [0;0]
ExecutionTime = 1.24 s  ClockTime = 1 s

deltaT = 1.82815e-05
Time = 0.00010968
DICPCG:  Solving for C, Initial residual = 0.0522334, Final residual = 7.16638e-07, No Iterations 19
DICPCG:  Solving for M, Initial residual = 1.18606e-05, Final residual = 2.09322e-25, No Iterations 1
DICPCG:  Solving for A, Initial residual = 1.87837e-09, Final residual = 1.87837e-09, No Iterations 0
C in [3.98067;4]
M in [0;0.300075]
A in [0;0]
ExecutionTime = 1.26 s  ClockTime = 1 s

deltaT = 2.19395e-05
Time = 0.000131619
DICPCG:  Solving for C, Initial residual = 0.0517737, Final residual = 6.54397e-07, No Iterations 21
DICPCG:  Solving for M, Initial residual = 1.42323e-05, Final residual = 1.25595e-25, No Iterations 1
DICPCG:  Solving for A, Initial residual = 1.87848e-09, Final residual = 1.87848e-09, No Iterations 0
C in [3.97986;4]
M in [0;0.300092]
A in [0;0]
ExecutionTime = 1.29 s  ClockTime = 1 s

deltaT = 2.63297e-05
Time = 0.000157949
DICPCG:  Solving for C, Initial residual = 0.0510794, Final residual = 6.36365e-07, No Iterations 23
DICPCG:  Solving for M, Initial residual = 1.70783e-05, Final residual = 2.46965e-21, No Iterations 1
DICPCG:  Solving for A, Initial residual = 1.87861e-09, Final residual = 1.87861e-09, No Iterations 0
C in [3.97899;4]
M in [0;0.300112]
A in [0;0]
ExecutionTime = 1.31 s  ClockTime = 1 s

deltaT = 3.15856e-05
Time = 0.000189534
DICPCG:  Solving for C, Initial residual = 0.0501085, Final residual = 6.45542e-07, No Iterations 25
DICPCG:  Solving for M, Initial residual = 2.0485e-05, Final residual = 2.964e-21, No Iterations 1
DICPCG:  Solving for A, Initial residual = 1.87876e-09, Final residual = 1.87876e-09, No Iterations 0
C in [3.97807;4]
M in [0;0.300137]
A in [0;0]
ExecutionTime = 1.34 s  ClockTime = 1 s

deltaT = 3.79075e-05
Time = 0.000227442
DICPCG:  Solving for C, Initial residual = 0.0488681, Final residual = 7.00004e-07, No Iterations 27
DICPCG:  Solving for M, Initial residual = 2.45818e-05, Final residual = 3.79686e-25, No Iterations 1
DICPCG:  Solving for A, Initial residual = 1.87895e-09, Final residual = 1.87895e-09, No Iterations 0
C in [3.97709;4]
M in [0;0.300166]
A in [0;0]
ExecutionTime = 1.37 s  ClockTime = 1 s

deltaT = 4.54959e-05
Time = 0.000272938
DICPCG:  Solving for C, Initial residual = 0.047314, Final residual = 8.31962e-07, No Iterations 29
DICPCG:  Solving for M, Initial residual = 2.94985e-05, Final residual = 1.06772e-21, No Iterations 1
DICPCG:  Solving for A, Initial residual = 1.87917e-09, Final residual = 1.87917e-09, No Iterations 0
C in [3.97604;4]
M in [0;0.300202]
A in [0;0]
ExecutionTime = 1.4 s  ClockTime = 1 s

deltaT = 5.45851e-05
Time = 0.000327523
DICPCG:  Solving for C, Initial residual = 0.045423, Final residual = 9.9071e-07, No Iterations 31
DICPCG:  Solving for M, Initial residual = 3.53862e-05, Final residual = 1.28033e-21, No Iterations 1
DICPCG:  Solving for A, Initial residual = 1.87943e-09, Final residual = 1.87943e-09, No Iterations 0
C in [3.9749;4]
M in [0;0.300244]
A in [0;0]
ExecutionTime = 1.43 s  ClockTime = 1 s

deltaT = 6.5531e-05
Time = 0.000393054
DICPCG:  Solving for C, Initial residual = 0.043226, Final residual = 9.12305e-07, No Iterations 33
DICPCG:  Solving for M, Initial residual = 4.24751e-05, Final residual = 2.15581e-24, No Iterations 1
DICPCG:  Solving for A, Initial residual = 1.87975e-09, Final residual = 1.87975e-09, No Iterations 0
C in [3.97366;4]
M in [0;0.300295]
A in [0;0]
ExecutionTime = 1.46 s  ClockTime = 1 s

deltaT = 7.86164e-05
Time = 0.00047167
DICPCG:  Solving for C, Initial residual = 0.0406951, Final residual = 7.4536e-07, No Iterations 36
DICPCG:  Solving for M, Initial residual = 5.09475e-05, Final residual = 5.52801e-21, No Iterations 1
DICPCG:  Solving for A, Initial residual = 1.88013e-09, Final residual = 1.88013e-09, No Iterations 0
C in [3.97231;4]
M in [0;0.300356]
A in [0;0]
ExecutionTime = 1.5 s  ClockTime = 1 s

deltaT = 9.43397e-05
Time = 0.00056601
DICPCG:  Solving for C, Initial residual = 0.0378927, Final residual = 9.21812e-07, No Iterations 38
DICPCG:  Solving for M, Initial residual = 6.11252e-05, Final residual = 2.216e-21, No Iterations 1
DICPCG:  Solving for A, Initial residual = 1.88059e-09, Final residual = 1.88059e-09, No Iterations 0
C in [3.97084;4]
M in [0;0.30043]
A in [0;0]
ExecutionTime = 1.53 s  ClockTime = 1 s

deltaT = 0.000113121
Time = 0.000679131
DICPCG:  Solving for C, Initial residual = 0.0348341, Final residual = 9.49884e-07, No Iterations 41
DICPCG:  Solving for M, Initial residual = 7.32789e-05, Final residual = 2.65189e-21, No Iterations 1
DICPCG:  Solving for A, Initial residual = 1.88115e-09, Final residual = 1.88115e-09, No Iterations 0
C in [3.96922;4]
M in [0;0.300518]
A in [0;0]
ExecutionTime = 1.56 s  ClockTime = 1 s

deltaT = 0.00013587
Time = 0.000815001
DICPCG:  Solving for C, Initial residual = 0.0316161, Final residual = 8.08847e-07, No Iterations 45
DICPCG:  Solving for M, Initial residual = 8.79953e-05, Final residual = 9.54673e-21, No Iterations 1
DICPCG:  Solving for A, Initial residual = 1.88181e-09, Final residual = 1.88181e-09, No Iterations 0
C in [3.96744;3.99999]
M in [0;0.300624]
A in [0;0]
ExecutionTime = 1.59 s  ClockTime = 1 s

deltaT = 0.000162864
Time = 0.000977865
DICPCG:  Solving for C, Initial residual = 0.0282327, Final residual = 9.27799e-07, No Iterations 48
DICPCG:  Solving for M, Initial residual = 0.000105452, Final residual = 2.66951e-20, No Iterations 1
DICPCG:  Solving for A, Initial residual = 1.8826e-09, Final residual = 1.8826e-09, No Iterations 0
C in [3.9655;3.99999]
M in [0;0.300751]
A in [0;0]
ExecutionTime = 1.63 s  ClockTime = 1 s

deltaT = 0.000195307
Time = 0.00117317
DICPCG:  Solving for C, Initial residual = 0.0248204, Final residual = 8.5637e-07, No Iterations 52
DICPCG:  Solving for M, Initial residual = 0.000126424, Final residual = 4.57958e-21, No Iterations 1
DICPCG:  Solving for A, Initial residual = 1.88355e-09, Final residual = 1.88355e-09, No Iterations 0
C in [3.96339;3.99998]
M in [0;0.300903]
A in [0;0]
ExecutionTime = 1.67 s  ClockTime = 1 s

deltaT = 0.000234744
Time = 0.00140792
DICPCG:  Solving for C, Initial residual = 0.021468, Final residual = 9.75595e-07, No Iterations 54
DICPCG:  Solving for M, Initial residual = 0.000151908, Final residual = 3.84436e-20, No Iterations 1
DICPCG:  Solving for A, Initial residual = 1.8847e-09, Final residual = 1.8847e-09, No Iterations 0
C in [3.96108;3.99997]
M in [0;0.301086]
A in [0;0]
ExecutionTime = 1.7 s  ClockTime = 1 s

deltaT = 0.000280879
Time = 0.0016888
DICPCG:  Solving for C, Initial residual = 0.0182117, Final residual = 8.74181e-07, No Iterations 59
DICPCG:  Solving for M, Initial residual = 0.000181706, Final residual = 2.63071e-20, No Iterations 1
DICPCG:  Solving for A, Initial residual = 1.88607e-09, Final residual = 1.88607e-09, No Iterations 0
C in [3.95857;3.99996]
M in [0;0.301305]
A in [0;0]
ExecutionTime = 1.74 s  ClockTime = 2 s

deltaT = 0.000337841
Time = 0.00202664
DICPCG:  Solving for C, Initial residual = 0.0152258, Final residual = 9.15001e-07, No Iterations 62
DICPCG:  Solving for M, Initial residual = 0.000218481, Final residual = 4.73771e-20, No Iterations 1
DICPCG:  Solving for A, Initial residual = 1.88771e-09, Final residual = 1.88771e-09, No Iterations 0
C in [3.95584;3.99995]
M in [0;0.301568]
A in [0;0]
ExecutionTime = 1.79 s  ClockTime = 2 s

deltaT = 0.000406554
Time = 0.00243319
DICPCG:  Solving for C, Initial residual = 0.012503, Final residual = 9.44848e-07, No Iterations 64
DICPCG:  Solving for M, Initial residual = 0.000262821, Final residual = 1.90471e-20, No Iterations 1
DICPCG:  Solving for A, Initial residual = 1.8897e-09, Final residual = 1.8897e-09, No Iterations 0
C in [3.95289;3.99993]
M in [0;0.301885]
A in [0;0]
ExecutionTime = 1.83 s  ClockTime = 2 s

deltaT = 0.000485376
Time = 0.00291857
DICPCG:  Solving for C, Initial residual = 0.010075, Final residual = 9.67495e-07, No Iterations 66
DICPCG:  Solving for M, Initial residual = 0.000313654, Final residual = 5.67674e-20, No Iterations 1
DICPCG:  Solving for A, Initial residual = 1.89207e-09, Final residual = 1.89207e-09, No Iterations 0
C in [3.94976;3.99991]
M in [0;0.302264]
A in [0;0]
ExecutionTime = 1.87 s  ClockTime = 2 s

deltaT = 0.000581252
Time = 0.00349982
DICPCG:  Solving for C, Initial residual = 0.00801276, Final residual = 9.75965e-07, No Iterations 68
DICPCG:  Solving for M, Initial residual = 0.000375459, Final residual = 5.43986e-20, No Iterations 1
DICPCG:  Solving for A, Initial residual = 1.89491e-09, Final residual = 1.89491e-09, No Iterations 0
C in [3.94646;3.99989]
M in [0;0.302718]
A in [0;0]
ExecutionTime = 1.91 s  ClockTime = 2 s

deltaT = 0.000694033
Time = 0.00419385
DICPCG:  Solving for C, Initial residual = 0.00626298, Final residual = 9.89823e-07, No Iterations 70
DICPCG:  Solving for M, Initial residual = 0.000448123, Final residual = 9.73365e-20, No Iterations 1
DICPCG:  Solving for A, Initial residual = 1.89831e-09, Final residual = 1.89831e-09, No Iterations 0
C in [3.94307;3.99987]
M in [0;0.303261]
A in [0;0]
ExecutionTime = 1.95 s  ClockTime = 2 s

deltaT = 0.000832839
Time = 0.00502669
DICPCG:  Solving for C, Initial residual = 0.00481895, Final residual = 9.11335e-07, No Iterations 74
DICPCG:  Solving for M, Initial residual = 0.000537529, Final residual = 2.00504e-20, No Iterations 1
DICPCG:  Solving for A, Initial residual = 1.90239e-09, Final residual = 1.90239e-09, No Iterations 0
C in [3.93966;3.99985]
M in [0;0.303914]
A in [0;0]
ExecutionTime = 2 s  ClockTime = 2 s

deltaT = 0.000999407
Time = 0.0060261
DICPCG:  Solving for C, Initial residual = 0.00362734, Final residual = 9.75483e-07, No Iterations 79
DICPCG:  Solving for M, Initial residual = 0.000644787, Final residual = 4.75948e-20, No Iterations 1
DICPCG:  Solving for A, Initial residual = 1.9073e-09, Final residual = 1.9073e-09, No Iterations 0
C in [3.93632;3.99983]
M in [0;0.304698]
A in [0;0]
ExecutionTime = 2.05 s  ClockTime = 2 s

deltaT = 0.00118848
Time = 0.00721458
DICPCG:  Solving for C, Initial residual = 0.00265748, Final residual = 8.52529e-07, No Iterations 82
DICPCG:  Solving for M, Initial residual = 0.000766506, Final residual = 1.12321e-19, No Iterations 1
DICPCG:  Solving for A, Initial residual = 1.91315e-09, Final residual = 1.91315e-09, No Iterations 0
C in [3.93321;3.99981]
M in [0;0.305634]
A in [0;0]
ExecutionTime = 2.1 s  ClockTime = 2 s

deltaT = 0.00142618
Time = 0.00864076
DICPCG:  Solving for C, Initial residual = 0.00189981, Final residual = 9.85328e-07, No Iterations 83
DICPCG:  Solving for M, Initial residual = 0.000919552, Final residual = 1.0273e-19, No Iterations 1
DICPCG:  Solving for A, Initial residual = 1.92019e-09, Final residual = 1.92019e-09, No Iterations 0
C in [3.9304;3.99979]
M in [0;0.306759]
A in [0;0]
ExecutionTime = 2.14 s  ClockTime = 2 s

deltaT = 0.0017233
Time = 0.0103641
DICPCG:  Solving for C, Initial residual = 0.00131016, Final residual = 8.31465e-07, No Iterations 87
DICPCG:  Solving for M, Initial residual = 0.00111091, Final residual = 2.44996e-19, No Iterations 1
DICPCG:  Solving for A, Initial residual = 1.92873e-09, Final residual = 1.92873e-09, No Iterations 0
C in [3.92797;3.99977]
M in [0;0.308124]
A in [0;0]
ExecutionTime = 2.19 s  ClockTime = 2 s

deltaT = 0.0020861
Time = 0.0124502
DICPCG:  Solving for C, Initial residual = 0.000864987, Final residual = 9.45764e-07, No Iterations 89
DICPCG:  Solving for M, Initial residual = 0.00134467, Final residual = 1.1009e-19, No Iterations 1
DICPCG:  Solving for A, Initial residual = 1.93911e-09, Final residual = 1.93911e-09, No Iterations 0
C in [3.92598;3.99976]
M in [0;0.309784]
A in [0;0]
ExecutionTime = 2.25 s  ClockTime = 2 s

deltaT = 0.00250332
Time = 0.0149535
DICPCG:  Solving for C, Initial residual = 0.000545669, Final residual = 9.23821e-07, No Iterations 93
DICPCG:  Solving for M, Initial residual = 0.00161362, Final residual = 2.56189e-19, No Iterations 1
DICPCG:  Solving for A, Initial residual = 1.95164e-09, Final residual = 1.95164e-09, No Iterations 0
C in [3.92442;3.99975]
M in [0;0.311787]
A in [0;0]
ExecutionTime = 2.3 s  ClockTime = 2 s

deltaT = 0.00292054
Time = 0.017874
DICPCG:  Solving for C, Initial residual = 0.00033397, Final residual = 9.98045e-07, No Iterations 96
DICPCG:  Solving for M, Initial residual = 0.0018827, Final residual = 1.83625e-19, No Iterations 1
DICPCG:  Solving for A, Initial residual = 1.96636e-09, Final residual = 1.96636e-09, No Iterations 0
C in [3.92325;3.99975]
M in [0;0.31414]
A in [0;0]
ExecutionTime = 2.35 s  ClockTime = 2 s

deltaT = 0.00356955
Time = 0.0214436
DICPCG:  Solving for C, Initial residual = 0.000214138, Final residual = 9.3418e-07, No Iterations 99
DICPCG:  Solving for M, Initial residual = 0.00230169, Final residual = 4.24679e-19, No Iterations 1
DICPCG:  Solving for A, Initial residual = 1.9845e-09, Final residual = 1.9845e-09, No Iterations 0
C in [3.92231;3.99974]
M in [0;0.317039]
A in [0;0]
ExecutionTime = 2.4 s  ClockTime = 2 s

deltaT = 0.00407949
Time = 0.0255231
DICPCG:  Solving for C, Initial residual = 0.000150767, Final residual = 9.43699e-07, No Iterations 101
DICPCG:  Solving for M, Initial residual = 0.00263104, Final residual = 5.55076e-19, No Iterations 1
DICPCG:  Solving for A, Initial residual = 2.00543e-09, Final residual = 2.00543e-09, No Iterations 0
C in [3.92147;3.99974]
M in [0;0.320385]
A in [0;0]
ExecutionTime = 2.45 s  ClockTime = 2 s

deltaT = 0.00489539
Time = 0.0304185
DICPCG:  Solving for C, Initial residual = 0.000130901, Final residual = 8.66325e-07, No Iterations 103
DICPCG:  Solving for M, Initial residual = 0.00315856, Final residual = 8.20558e-19, No Iterations 1
DICPCG:  Solving for A, Initial residual = 2.03083e-09, Final residual = 2.03083e-09, No Iterations 0
C in [3.92062;3.99974]
M in [0;0.324447]
A in [0;0]
ExecutionTime = 2.51 s  ClockTime = 2 s

deltaT = 0.00489539
Time = 0.0353138
DICPCG:  Solving for C, Initial residual = 0.000130082, Final residual = 9.81477e-07, No Iterations 104
DICPCG:  Solving for M, Initial residual = 0.00315818, Final residual = 8.47516e-19, No Iterations 1
DICPCG:  Solving for A, Initial residual = 2.05656e-09, Final residual = 2.05656e-09, No Iterations 0
C in [3.91969;3.99973]
M in [0;0.328559]
A in [0;0]
ExecutionTime = 2.56 s  ClockTime = 2 s

deltaT = 0.00489539
Time = 0.0402092
DICPCG:  Solving for C, Initial residual = 0.000137207, Final residual = 9.94419e-07, No Iterations 104
DICPCG:  Solving for M, Initial residual = 0.00315777, Final residual = 1.30261e-18, No Iterations 1
DICPCG:  Solving for A, Initial residual = 2.0826e-09, Final residual = 2.0826e-09, No Iterations 0
C in [3.91872;3.99973]
M in [0;0.332723]
A in [0;0]
ExecutionTime = 2.62 s  ClockTime = 2 s

deltaT = 0.00489539
Time = 0.0451046
DICPCG:  Solving for C, Initial residual = 0.000142695, Final residual = 9.94026e-07, No Iterations 104
DICPCG:  Solving for M, Initial residual = 0.00315734, Final residual = 1.35695e-18, No Iterations 1
DICPCG:  Solving for A, Initial residual = 2.10898e-09, Final residual = 2.10898e-09, No Iterations 0
C in [3.91771;3.99973]
M in [0;0.336939]
A in [0;0]
ExecutionTime = 2.67 s  ClockTime = 2 s

deltaT = 0.00489539
Time = 0.05
DICPCG:  Solving for C, Initial residual = 0.000145441, Final residual = 9.93976e-07, No Iterations 104
DICPCG:  Solving for M, Initial residual = 0.00315689, Final residual = 1.56456e-18, No Iterations 1
DICPCG:  Solving for A, Initial residual = 2.13568e-09, Final residual = 2.13568e-09, No Iterations 0
C in [3.91667;3.99972]
M in [0;0.341208]
A in [0;0]
ExecutionTime = 2.83 s  ClockTime = 3 s

deltaT = 0.005
Time = 0.055
DICPCG:  Solving for C, Initial residual = 0.000146827, Final residual = 9.27865e-07, No Iterations 105
DICPCG:  Solving for M, Initial residual = 0.00322411, Final residual = 1.91533e-18, No Iterations 1
DICPCG:  Solving for A, Initial residual = 2.1633e-09, Final residual = 2.1633e-09, No Iterations 0
C in [3.91561;3.99972]
M in [0;0.345623]
A in [0;0]
ExecutionTime = 2.88 s  ClockTime = 3 s

deltaT = 0.005
Time = 0.06
DICPCG:  Solving for C, Initial residual = 0.000147344, Final residual = 9.4854e-07, No Iterations 105
DICPCG:  Solving for M, Initial residual = 0.00322364, Final residual = 2.19101e-18, No Iterations 1
DICPCG:  Solving for A, Initial residual = 2.19127e-09, Final residual = 2.19127e-09, No Iterations 0
C in [3.91453;3.99972]
M in [0;0.350094]
A in [0;0]
ExecutionTime = 2.95 s  ClockTime = 3 s

deltaT = 0.005
Time = 0.065
DICPCG:  Solving for C, Initial residual = 0.000147967, Final residual = 9.50115e-07, No Iterations 105
DICPCG:  Solving for M, Initial residual = 0.00322316, Final residual = 2.56253e-18, No Iterations 1
DICPCG:  Solving for A, Initial residual = 2.2196e-09, Final residual = 2.2196e-09, No Iterations 0
C in [3.91343;3.99971]
M in [0;0.354622]
A in [0;0]
ExecutionTime = 3.01 s  ClockTime = 3 s

deltaT = 0.005
Time = 0.07
DICPCG:  Solving for C, Initial residual = 0.000148413, Final residual = 9.49727e-07, No Iterations 105
DICPCG:  Solving for M, Initial residual = 0.00322267, Final residual = 3.27573e-18, No Iterations 1
DICPCG:  Solving for A, Initial residual = 2.24829e-09, Final residual = 2.24829e-09, No Iterations 0
C in [3.91232;3.99971]
M in [0;0.359209]
A in [0;0]
ExecutionTime = 3.06 s  ClockTime = 3 s

deltaT = 0.005
Time = 0.075
DICPCG:  Solving for C, Initial residual = 0.000148692, Final residual = 9.49382e-07, No Iterations 105
DICPCG:  Solving for M, Initial residual = 0.00322218, Final residual = 3.95651e-18, No Iterations 1
DICPCG:  Solving for A, Initial residual = 2.27734e-09, Final residual = 2.27734e-09, No Iterations 0
C in [3.91119;3.9997]
M in [0;0.363853]
A in [0;0]
ExecutionTime = 3.12 s  ClockTime = 3 s

deltaT = 0.005
Time = 0.08
DICPCG:  Solving for C, Initial residual = 0.000148889, Final residual = 9.49071e-07, No Iterations 105
DICPCG:  Solving for M, Initial residual = 0.00322168, Final residual = 5.26301e-18, No Iterations 1
DICPCG:  Solving for A, Initial residual = 2.30677e-09, Final residual = 2.30677e-09, No Iterations 0
C in [3.91005;3.9997]
M in [0;0.368557]
A in [0;0]
ExecutionTime = 3.17 s  ClockTime = 3 s

deltaT = 0.005
Time = 0.085
DICPCG:  Solving for C, Initial residual = 0.000149059, Final residual = 9.48759e-07, No Iterations 105
DICPCG:  Solving for M, Initial residual = 0.00322117, Final residual = 6.35572e-18, No Iterations 1
DICPCG:  Solving for A, Initial residual = 2.33657e-09, Final residual = 2.33657e-09, No Iterations 0
C in [3.90889;3.9997]
M in [0;0.37332]
A in [0;0]
ExecutionTime = 3.24 s  ClockTime = 3 s

deltaT = 0.005
Time = 0.09
DICPCG:  Solving for C, Initial residual = 0.000149225, Final residual = 9.4844e-07, No Iterations 105
DICPCG:  Solving for M, Initial residual = 0.00322066, Final residual = 8.02108e-18, No Iterations 1
DICPCG:  Solving for A, Initial residual = 2.36676e-09, Final residual = 2.36676e-09, No Iterations 0
C in [3.90772;3.99969]
M in [0;0.378144]
A in [0;0]
ExecutionTime = 3.3 s  ClockTime = 3 s

deltaT = 0.005
Time = 0.095
DICPCG:  Solving for C, Initial residual = 0.000149394, Final residual = 9.48117e-07, No Iterations 105
DICPCG:  Solving for M, Initial residual = 0.00322015, Final residual = 1.03627e-17, No Iterations 1
DICPCG:  Solving for A, Initial residual = 2.39732e-09, Final residual = 2.39732e-09, No Iterations 0
C in [3.90653;3.99969]
M in [0;0.38303]
A in [0;0]
ExecutionTime = 3.35 s  ClockTime = 3 s

deltaT = 0.005
Time = 0.1
DICPCG:  Solving for C, Initial residual = 0.000149567, Final residual = 9.478e-07, No Iterations 105
DICPCG:  Solving for M, Initial residual = 0.00321963, Final residual = 1.32313e-17, No Iterations 1
DICPCG:  Solving for A, Initial residual = 2.42828e-09, Final residual = 2.42828e-09, No Iterations 0
C in [3.90533;3.99969]
M in [0;0.387977]
A in [0;0]
ExecutionTime = 3.52 s  ClockTime = 3 s

deltaT = 0.005
Time = 0.105
DICPCG:  Solving for C, Initial residual = 0.000149742, Final residual = 9.47488e-07, No Iterations 105
DICPCG:  Solving for M, Initial residual = 0.00321911, Final residual = 1.63526e-17, No Iterations 1
DICPCG:  Solving for A, Initial residual = 2.45963e-09, Final residual = 2.45963e-09, No Iterations 0
C in [3.90411;3.99968]
M in [0;0.392987]
A in [0;0]
ExecutionTime = 3.59 s  ClockTime = 4 s

deltaT = 0.005
Time = 0.11
DICPCG:  Solving for C, Initial residual = 0.000149921, Final residual = 9.47182e-07, No Iterations 105
DICPCG:  Solving for M, Initial residual = 0.00321858, Final residual = 2.10171e-17, No Iterations 1
DICPCG:  Solving for A, Initial residual = 2.49138e-09, Final residual = 2.49138e-09, No Iterations 0
C in [3.90288;3.99968]
M in [0;0.398061]
A in [0;0]
ExecutionTime = 3.65 s  ClockTime = 4 s

deltaT = 0.005
Time = 0.115
DICPCG:  Solving for C, Initial residual = 0.000150101, Final residual = 9.46871e-07, No Iterations 105
DICPCG:  Solving for M, Initial residual = 0.00321805, Final residual = 2.72607e-17, No Iterations 1
DICPCG:  Solving for A, Initial residual = 2.52354e-09, Final residual = 2.52354e-09, No Iterations 0
C in [3.90163;3.99967]
M in [0;0.403199]
A in [0;0]
ExecutionTime = 3.71 s  ClockTime = 4 s

deltaT = 0.005
Time = 0.12
DICPCG:  Solving for C, Initial residual = 0.000150284, Final residual = 9.46554e-07, No Iterations 105
DICPCG:  Solving for M, Initial residual = 0.00321752, Final residual = 3.50584e-17, No Iterations 1
DICPCG:  Solving for A, Initial residual = 2.5561e-09, Final residual = 2.5561e-09, No Iterations 0
C in [3.90037;3.99967]
M in [0;0.408401]
A in [0;0]
ExecutionTime = 3.77 s  ClockTime = 4 s

deltaT = 0.005
Time = 0.125
DICPCG:  Solving for C, Initial residual = 0.000150469, Final residual = 9.46236e-07, No Iterations 105
DICPCG:  Solving for M, Initial residual = 0.00321698, Final residual = 4.55308e-17, No Iterations 1
DICPCG:  Solving for A, Initial residual = 2.58908e-09, Final residual = 2.58908e-09, No Iterations 0
C in [3.89909;3.99966]
M in [0;0.41367]
A in [0;0]
ExecutionTime = 3.83 s  ClockTime = 4 s

deltaT = 0.005
Time = 0.13
DICPCG:  Solving for C, Initial residual = 0.000150655, Final residual = 9.45916e-07, No Iterations 105
DICPCG:  Solving for M, Initial residual = 0.00321644, Final residual = 5.92559e-17, No Iterations 1
DICPCG:  Solving for A, Initial residual = 2.62247e-09, Final residual = 2.62247e-09, No Iterations 0
C in [3.89779;3.99966]
M in [0;0.419005]
A in [0;0]
ExecutionTime = 3.88 s  ClockTime = 4 s

deltaT = 0.005
Time = 0.135
DICPCG:  Solving for C, Initial residual = 0.000150844, Final residual = 9.45593e-07, No Iterations 105
DICPCG:  Solving for M, Initial residual = 0.00321589, Final residual = 7.6546e-17, No Iterations 1
DICPCG:  Solving for A, Initial residual = 2.65629e-09, Final residual = 2.65629e-09, No Iterations 0
C in [3.89648;3.99966]
M in [0;0.424407]
A in [0;0]
ExecutionTime = 3.95 s  ClockTime = 4 s

deltaT = 0.005
Time = 0.14
DICPCG:  Solving for C, Initial residual = 0.000151034, Final residual = 9.45271e-07, No Iterations 105
DICPCG:  Solving for M, Initial residual = 0.00321534, Final residual = 9.97264e-17, No Iterations 1
DICPCG:  Solving for A, Initial residual = 2.69055e-09, Final residual = 2.69055e-09, No Iterations 0
C in [3.89515;3.99965]
M in [0;0.429877]
A in [0;0]
ExecutionTime = 4.01 s  ClockTime = 4 s

deltaT = 0.005
Time = 0.145
DICPCG:  Solving for C, Initial residual = 0.000151226, Final residual = 9.44953e-07, No Iterations 105
DICPCG:  Solving for M, Initial residual = 0.00321479, Final residual = 1.30087e-16, No Iterations 1
DICPCG:  Solving for A, Initial residual = 2.72523e-09, Final residual = 2.72523e-09, No Iterations 0
C in [3.8938;3.99965]
M in [0;0.435415]
A in [0;0]
ExecutionTime = 4.06 s  ClockTime = 4 s

deltaT = 0.005
Time = 0.15
DICPCG:  Solving for C, Initial residual = 0.000151419, Final residual = 9.44658e-07, No Iterations 105
DICPCG:  Solving for M, Initial residual = 0.00321424, Final residual = 1.70484e-16, No Iterations 1
DICPCG:  Solving for A, Initial residual = 2.76036e-09, Final residual = 2.76036e-09, No Iterations 0
C in [3.89244;3.99964]
M in [0;0.441023]
A in [0;0]
ExecutionTime = 4.24 s  ClockTime = 4 s

deltaT = 0.005
Time = 0.155
DICPCG:  Solving for C, Initial residual = 0.000151614, Final residual = 9.44357e-07, No Iterations 105
DICPCG:  Solving for M, Initial residual = 0.00321369, Final residual = 2.24267e-16, No Iterations 1
DICPCG:  Solving for A, Initial residual = 2.79593e-09, Final residual = 2.79593e-09, No Iterations 0
C in [3.89106;3.99964]
M in [0;0.446701]
A in [0;0]
ExecutionTime = 4.29 s  ClockTime = 4 s

deltaT = 0.005
Time = 0.16
DICPCG:  Solving for C, Initial residual = 0.000151809, Final residual = 9.44048e-07, No Iterations 105
DICPCG:  Solving for M, Initial residual = 0.00321314, Final residual = 2.95106e-16, No Iterations 1
DICPCG:  Solving for A, Initial residual = 2.83195e-09, Final residual = 2.83195e-09, No Iterations 0
C in [3.88966;3.99963]
M in [0;0.45245]
A in [0;0]
ExecutionTime = 4.36 s  ClockTime = 4 s

deltaT = 0.005
Time = 0.165
DICPCG:  Solving for C, Initial residual = 0.000152006, Final residual = 9.43772e-07, No Iterations 105
DICPCG:  Solving for M, Initial residual = 0.00321258, Final residual = 3.88928e-16, No Iterations 1
DICPCG:  Solving for A, Initial residual = 2.86843e-09, Final residual = 2.86843e-09, No Iterations 0
C in [3.88825;3.99963]
M in [0;0.458271]
A in [0;0]
ExecutionTime = 4.42 s  ClockTime = 4 s

deltaT = 0.005
Time = 0.17
DICPCG:  Solving for C, Initial residual = 0.000152203, Final residual = 9.43509e-07, No Iterations 105
DICPCG:  Solving for M, Initial residual = 0.00321203, Final residual = 5.1508e-16, No Iterations 1
DICPCG:  Solving for A, Initial residual = 2.90537e-09, Final residual = 2.90537e-09, No Iterations 0
C in [3.88682;3.99962]
M in [0;0.464163]
A in [0;0]
ExecutionTime = 4.47 s  ClockTime = 5 s

deltaT = 0.005
Time = 0.175
DICPCG:  Solving for C, Initial residual = 0.0001524, Final residual = 9.43248e-07, No Iterations 105
DICPCG:  Solving for M, Initial residual = 0.00321148, Final residual = 6.84395e-16, No Iterations 1
DICPCG:  Solving for A, Initial residual = 2.94278e-09, Final residual = 2.94278e-09, No Iterations 0
C in [3.88536;3.99962]
M in [0;0.470129]
A in [0;0]
ExecutionTime = 4.54 s  ClockTime = 5 s

deltaT = 0.005
Time = 0.18
DICPCG:  Solving for C, Initial residual = 0.000152598, Final residual = 9.42986e-07, No Iterations 105
DICPCG:  Solving for M, Initial residual = 0.00321093, Final residual = 9.10641e-16, No Iterations 1
DICPCG:  Solving for A, Initial residual = 2.98067e-09, Final residual = 2.98067e-09, No Iterations 0
C in [3.8839;3.99961]
M in [0;0.476168]
A in [0;0]
ExecutionTime = 4.6 s  ClockTime = 5 s

deltaT = 0.005
Time = 0.185
DICPCG:  Solving for C, Initial residual = 0.000152794, Final residual = 9.42727e-07, No Iterations 105
DICPCG:  Solving for M, Initial residual = 0.00321039, Final residual = 1.21738e-15, No Iterations 1
DICPCG:  Solving for A, Initial residual = 3.01903e-09, Final residual = 3.01903e-09, No Iterations 0
C in [3.88241;3.99961]
M in [0;0.482281]
A in [0;0]
ExecutionTime = 4.66 s  ClockTime = 5 s

deltaT = 0.005
Time = 0.19
DICPCG:  Solving for C, Initial residual = 0.00015299, Final residual = 9.42449e-07, No Iterations 105
DICPCG:  Solving for M, Initial residual = 0.00320985, Final residual = 1.62912e-15, No Iterations 1
DICPCG:  Solving for A, Initial residual = 3.05788e-09, Final residual = 3.05788e-09, No Iterations 0
C in [3.8809;3.9996]
M in [0;0.48847]
A in [0;0]
ExecutionTime = 4.79 s  ClockTime = 5 s

deltaT = 0.005
Time = 0.195
DICPCG:  Solving for C, Initial residual = 0.000153184, Final residual = 9.42145e-07, No Iterations 105
DICPCG:  Solving for M, Initial residual = 0.00320932, Final residual = 2.19174e-15, No Iterations 1
DICPCG:  Solving for A, Initial residual = 3.09722e-09, Final residual = 3.09722e-09, No Iterations 0
C in [3.87938;3.9996]
M in [0;0.494733]
A in [0;0]
ExecutionTime = 4.85 s  ClockTime = 5 s

deltaT = 0.005
Time = 0.2
DICPCG:  Solving for C, Initial residual = 0.000153376, Final residual = 9.41825e-07, No Iterations 105
DICPCG:  Solving for M, Initial residual = 0.00320879, Final residual = 2.95472e-15, No Iterations 1
DICPCG:  Solving for A, Initial residual = 3.13706e-09, Final residual = 3.13706e-09, No Iterations 0
C in [3.87783;3.99959]
M in [0;0.501073]
A in [0;0]
ExecutionTime = 5.01 s  ClockTime = 5 s

deltaT = 0.005
Time = 0.205
DICPCG:  Solving for C, Initial residual = 0.000153564, Final residual = 9.41494e-07, No Iterations 105
DICPCG:  Solving for M, Initial residual = 0.00320828, Final residual = 3.99962e-15, No Iterations 1
DICPCG:  Solving for A, Initial residual = 3.1774e-09, Final residual = 3.1774e-09, No Iterations 0
C in [3.87627;3.99959]
M in [0;0.507488]
A in [0;0]
ExecutionTime = 5.08 s  ClockTime = 5 s

deltaT = 0.005
Time = 0.21
DICPCG:  Solving for C, Initial residual = 0.000153749, Final residual = 9.41141e-07, No Iterations 105
DICPCG:  Solving for M, Initial residual = 0.00320778, Final residual = 5.43244e-15, No Iterations 1
DICPCG:  Solving for A, Initial residual = 3.21825e-09, Final residual = 3.21825e-09, No Iterations 0
C in [3.87469;3.99958]
M in [0;0.513981]
A in [0;0]
ExecutionTime = 5.13 s  ClockTime = 5 s

deltaT = 0.005
Time = 0.215
DICPCG:  Solving for C, Initial residual = 0.000153929, Final residual = 9.40765e-07, No Iterations 105
DICPCG:  Solving for M, Initial residual = 0.00320729, Final residual = 7.40821e-15, No Iterations 1
DICPCG:  Solving for A, Initial residual = 3.25961e-09, Final residual = 3.25961e-09, No Iterations 0
C in [3.87308;3.99958]
M in [0;0.520551]
A in [0;0]
ExecutionTime = 5.19 s  ClockTime = 5 s

deltaT = 0.005
Time = 0.22
DICPCG:  Solving for C, Initial residual = 0.000154102, Final residual = 9.40379e-07, No Iterations 105
DICPCG:  Solving for M, Initial residual = 0.00320683, Final residual = 1.0138e-14, No Iterations 1
DICPCG:  Solving for A, Initial residual = 3.3015e-09, Final residual = 3.3015e-09, No Iterations 0
C in [3.87146;3.99957]
M in [0;0.527197]
A in [0;0]
ExecutionTime = 5.25 s  ClockTime = 5 s

deltaT = 0.005
Time = 0.225
DICPCG:  Solving for C, Initial residual = 0.000154268, Final residual = 9.40005e-07, No Iterations 105
DICPCG:  Solving for M, Initial residual = 0.00320638, Final residual = 1.39327e-14, No Iterations 1
DICPCG:  Solving for A, Initial residual = 3.34391e-09, Final residual = 3.34391e-09, No Iterations 0
C in [3.86982;3.99957]
M in [0;0.533922]
A in [0;0]
ExecutionTime = 5.31 s  ClockTime = 5 s

deltaT = 0.005
Time = 0.23
DICPCG:  Solving for C, Initial residual = 0.000154424, Final residual = 9.39615e-07, No Iterations 105
DICPCG:  Solving for M, Initial residual = 0.00320596, Final residual = 1.92224e-14, No Iterations 1
DICPCG:  Solving for A, Initial residual = 3.38686e-09, Final residual = 3.38686e-09, No Iterations 0
C in [3.86815;3.99956]
M in [0;0.540724]
A in [0;0]
ExecutionTime = 5.36 s  ClockTime = 6 s

deltaT = 0.005
Time = 0.235
DICPCG:  Solving for C, Initial residual = 0.000154569, Final residual = 9.39194e-07, No Iterations 105
DICPCG:  Solving for M, Initial residual = 0.00320539, Final residual = 2.66373e-14, No Iterations 1
DICPCG:  Solving for A, Initial residual = 3.43035e-09, Final residual = 3.43035e-09, No Iterations 0
C in [3.86647;3.99956]
M in [0;0.547603]
A in [0;0]
ExecutionTime = 5.42 s  ClockTime = 6 s

deltaT = 0.005
Time = 0.24
DICPCG:  Solving for C, Initial residual = 0.000154701, Final residual = 9.38785e-07, No Iterations 105
DICPCG:  Solving for M, Initial residual = 0.00320467, Final residual = 3.70732e-14, No Iterations 1
DICPCG:  Solving for A, Initial residual = 3.47439e-09, Final residual = 3.47439e-09, No Iterations 0
C in [3.86477;3.99955]
M in [0;0.554559]
A in [0;0]
ExecutionTime = 5.48 s  ClockTime = 6 s

deltaT = 0.005
Time = 0.245
DICPCG:  Solving for C, Initial residual = 0.000154817, Final residual = 9.38354e-07, No Iterations 105
DICPCG:  Solving for M, Initial residual = 0.00320387, Final residual = 5.18319e-14, No Iterations 1
DICPCG:  Solving for A, Initial residual = 3.51898e-09, Final residual = 3.51898e-09, No Iterations 0
C in [3.86304;3.99955]
M in [0;0.561592]
A in [0;0]
ExecutionTime = 5.54 s  ClockTime = 6 s

deltaT = 0.005
Time = 0.25
DICPCG:  Solving for C, Initial residual = 0.000154913, Final residual = 9.37889e-07, No Iterations 105
DICPCG:  Solving for M, Initial residual = 0.00320307, Final residual = 7.28067e-14, No Iterations 1
DICPCG:  Solving for A, Initial residual = 3.56414e-09, Final residual = 3.56414e-09, No Iterations 0
C in [3.86129;3.99954]
M in [0;0.568701]
A in [0;0]
ExecutionTime = 5.71 s  ClockTime = 6 s

deltaT = 0.005
Time = 0.255
DICPCG:  Solving for C, Initial residual = 0.000154987, Final residual = 9.37379e-07, No Iterations 105
DICPCG:  Solving for M, Initial residual = 0.00320225, Final residual = 1.02773e-13, No Iterations 1
DICPCG:  Solving for A, Initial residual = 3.60986e-09, Final residual = 3.60986e-09, No Iterations 0
C in [3.85952;3.99953]
M in [0;0.575884]
A in [0;0]
ExecutionTime = 5.76 s  ClockTime = 6 s

deltaT = 0.005
Time = 0.26
DICPCG:  Solving for C, Initial residual = 0.000155034, Final residual = 9.36826e-07, No Iterations 105
DICPCG:  Solving for M, Initial residual = 0.00320142, Final residual = 1.45803e-13, No Iterations 1
DICPCG:  Solving for A, Initial residual = 3.65615e-09, Final residual = 3.65615e-09, No Iterations 0
C in [3.85773;3.99953]
M in [0;0.583141]
A in [0;0]
ExecutionTime = 5.83 s  ClockTime = 6 s

deltaT = 0.005
Time = 0.265
DICPCG:  Solving for C, Initial residual = 0.000155049, Final residual = 9.36238e-07, No Iterations 105
DICPCG:  Solving for M, Initial residual = 0.00320058, Final residual = 2.07926e-13, No Iterations 1
DICPCG:  Solving for A, Initial residual = 3.70303e-09, Final residual = 3.70303e-09, No Iterations 0
C in [3.85592;3.99952]
M in [0;0.59047]
A in [0;0]
ExecutionTime = 5.89 s  ClockTime = 6 s

deltaT = 0.005
Time = 0.27
DICPCG:  Solving for C, Initial residual = 0.000155026, Final residual = 9.35613e-07, No Iterations 105
DICPCG:  Solving for M, Initial residual = 0.00319973, Final residual = 2.98108e-13, No Iterations 1
DICPCG:  Solving for A, Initial residual = 3.7505e-09, Final residual = 3.7505e-09, No Iterations 0
C in [3.85408;3.99952]
M in [0;0.597868]
A in [0;0]
ExecutionTime = 5.94 s  ClockTime = 6 s

deltaT = 0.005
Time = 0.275
DICPCG:  Solving for C, Initial residual = 0.000154959, Final residual = 9.34945e-07, No Iterations 105
DICPCG:  Solving for M, Initial residual = 0.00319887, Final residual = 4.2975e-13, No Iterations 1
DICPCG:  Solving for A, Initial residual = 3.79856e-09, Final residual = 3.79856e-09, No Iterations 0
C in [3.85222;3.99951]
M in [0;0.605332]
A in [0;0]
ExecutionTime = 6 s  ClockTime = 6 s

deltaT = 0.005
Time = 0.28
DICPCG:  Solving for C, Initial residual = 0.00015484, Final residual = 9.34256e-07, No Iterations 105
DICPCG:  Solving for M, Initial residual = 0.003198, Final residual = 6.23014e-13, No Iterations 1
DICPCG:  Solving for A, Initial residual = 3.84722e-09, Final residual = 3.84722e-09, No Iterations 0
C in [3.85034;3.9995]
M in [0;0.612861]
A in [0;0]
ExecutionTime = 6.06 s  ClockTime = 6 s

deltaT = 0.005
Time = 0.285
DICPCG:  Solving for C, Initial residual = 0.000154659, Final residual = 9.33596e-07, No Iterations 105
DICPCG:  Solving for M, Initial residual = 0.00319712, Final residual = 9.08383e-13, No Iterations 1
DICPCG:  Solving for A, Initial residual = 3.89649e-09, Final residual = 3.89649e-09, No Iterations 0
C in [3.84844;3.9995]
M in [0;0.620448]
A in [0;0]
ExecutionTime = 6.12 s  ClockTime = 6 s

deltaT = 0.005
Time = 0.29
DICPCG:  Solving for C, Initial residual = 0.000154406, Final residual = 9.32926e-07, No Iterations 105
DICPCG:  Solving for M, Initial residual = 0.00319622, Final residual = 1.33222e-12, No Iterations 1
DICPCG:  Solving for A, Initial residual = 3.94638e-09, Final residual = 3.94638e-09, No Iterations 0
C in [3.84651;3.99949]
M in [0;0.628089]
A in [0;0]
ExecutionTime = 6.18 s  ClockTime = 6 s

deltaT = 0.005
Time = 0.295
DICPCG:  Solving for C, Initial residual = 0.000154067, Final residual = 9.32289e-07, No Iterations 105
DICPCG:  Solving for M, Initial residual = 0.00319532, Final residual = 1.96539e-12, No Iterations 1
DICPCG:  Solving for A, Initial residual = 3.9969e-09, Final residual = 3.9969e-09, No Iterations 0
C in [3.84456;3.99949]
M in [0;0.635777]
A in [0;0]
ExecutionTime = 6.26 s  ClockTime = 7 s

deltaT = 0.005
Time = 0.3
DICPCG:  Solving for C, Initial residual = 0.000153627, Final residual = 9.31645e-07, No Iterations 105
DICPCG:  Solving for M, Initial residual = 0.0031944, Final residual = 2.91679e-12, No Iterations 1
DICPCG:  Solving for A, Initial residual = 4.04804e-09, Final residual = 4.04804e-09, No Iterations 0
C in [3.84258;3.99948]
M in [0;0.643506]
A in [0;0]
ExecutionTime = 6.43 s  ClockTime = 7 s

deltaT = 0.005
Time = 0.305
DICPCG:  Solving for C, Initial residual = 0.000153069, Final residual = 9.30997e-07, No Iterations 105
DICPCG:  Solving for M, Initial residual = 0.00319348, Final residual = 4.35451e-12, No Iterations 1
DICPCG:  Solving for A, Initial residual = 4.09983e-09, Final residual = 4.09983e-09, No Iterations 0
C in [3.84059;3.99947]
M in [0;0.651266]
A in [0;0]
ExecutionTime = 6.49 s  ClockTime = 7 s

deltaT = 0.005
Time = 0.31
DICPCG:  Solving for C, Initial residual = 0.000152372, Final residual = 9.30318e-07, No Iterations 105
DICPCG:  Solving for M, Initial residual = 0.00319254, Final residual = 6.53912e-12, No Iterations 1
DICPCG:  Solving for A, Initial residual = 4.15226e-09, Final residual = 4.15226e-09, No Iterations 0
C in [3.83856;3.99947]
M in [0;0.659045]
A in [0;0]
ExecutionTime = 6.55 s  ClockTime = 7 s

deltaT = 0.005
Time = 0.315
DICPCG:  Solving for C, Initial residual = 0.000151517, Final residual = 9.29628e-07, No Iterations 105
DICPCG:  Solving for M, Initial residual = 0.00319159, Final residual = 9.87599e-12, No Iterations 1
DICPCG:  Solving for A, Initial residual = 4.20535e-09, Final residual = 4.20535e-09, No Iterations 0
C in [3.83652;3.99946]
M in [0;0.666832]
A in [0;0]
ExecutionTime = 6.62 s  ClockTime = 7 s

deltaT = 0.005
Time = 0.32
DICPCG:  Solving for C, Initial residual = 0.000150484, Final residual = 9.28947e-07, No Iterations 105
DICPCG:  Solving for M, Initial residual = 0.00319063, Final residual = 1.49972e-11, No Iterations 1
DICPCG:  Solving for A, Initial residual = 4.2591e-09, Final residual = 4.2591e-09, No Iterations 0
C in [3.83445;3.99945]
M in [0;0.67461]
A in [0;0]
ExecutionTime = 6.68 s  ClockTime = 7 s

deltaT = 0.005
Time = 0.325
DICPCG:  Solving for C, Initial residual = 0.000149261, Final residual = 9.28257e-07, No Iterations 105
DICPCG:  Solving for M, Initial residual = 0.00318966, Final residual = 2.289e-11, No Iterations 1
DICPCG:  Solving for A, Initial residual = 4.31352e-09, Final residual = 4.31352e-09, No Iterations 0
C in [3.83236;3.99945]
M in [0;0.68236]
A in [0;0]
ExecutionTime = 6.74 s  ClockTime = 7 s

deltaT = 0.005
Time = 0.33
DICPCG:  Solving for C, Initial residual = 0.000147818, Final residual = 9.27566e-07, No Iterations 105
DICPCG:  Solving for M, Initial residual = 0.00318868, Final residual = 3.50952e-11, No Iterations 1
DICPCG:  Solving for A, Initial residual = 4.36862e-09, Final residual = 4.36862e-09, No Iterations 0
C in [3.83024;3.99944]
M in [0;0.690061]
A in [0;0]
ExecutionTime = 6.79 s  ClockTime = 7 s

deltaT = 0.005
Time = 0.335
DICPCG:  Solving for C, Initial residual = 0.000146103, Final residual = 9.26844e-07, No Iterations 105
DICPCG:  Solving for M, Initial residual = 0.00318769, Final residual = 5.40121e-11, No Iterations 1
DICPCG:  Solving for A, Initial residual = 4.4244e-09, Final residual = 4.4244e-09, No Iterations 0
C in [3.8281;3.99943]
M in [0;0.697688]
A in [0;0]
ExecutionTime = 6.86 s  ClockTime = 7 s

deltaT = 0.005
Time = 0.34
DICPCG:  Solving for C, Initial residual = 0.0001441, Final residual = 9.26076e-07, No Iterations 105
DICPCG:  Solving for M, Initial residual = 0.00318669, Final residual = 8.33573e-11, No Iterations 1
DICPCG:  Solving for A, Initial residual = 4.48088e-09, Final residual = 4.48088e-09, No Iterations 0
C in [3.82593;3.99942]
M in [0;0.70521]
A in [0;0]
ExecutionTime = 6.92 s  ClockTime = 7 s

deltaT = 0.005
Time = 0.345
DICPCG:  Solving for C, Initial residual = 0.000141835, Final residual = 9.25253e-07, No Iterations 105
DICPCG:  Solving for M, Initial residual = 0.00318568, Final residual = 1.28835e-10, No Iterations 1
DICPCG:  Solving for A, Initial residual = 4.53806e-09, Final residual = 4.53806e-09, No Iterations 0
C in [3.82374;3.99942]
M in [0;0.712592]
A in [0;0]
ExecutionTime = 6.97 s  ClockTime = 7 s

deltaT = 0.005
Time = 0.35
DICPCG:  Solving for C, Initial residual = 0.000139306, Final residual = 9.24427e-07, No Iterations 105
DICPCG:  Solving for M, Initial residual = 0.00318465, Final residual = 1.9908e-10, No Iterations 1
DICPCG:  Solving for A, Initial residual = 4.59596e-09, Final residual = 4.59596e-09, No Iterations 0
C in [3.82153;3.99941]
M in [0;0.719798]
A in [0;0]
ExecutionTime = 7.14 s  ClockTime = 8 s

deltaT = 0.005
Time = 0.355
DICPCG:  Solving for C, Initial residual = 0.000136612, Final residual = 9.23577e-07, No Iterations 105
DICPCG:  Solving for M, Initial residual = 0.00318362, Final residual = 3.0689e-10, No Iterations 1
DICPCG:  Solving for A, Initial residual = 4.65457e-09, Final residual = 4.65457e-09, No Iterations 0
C in [3.8193;3.9994]
M in [0;0.726781]
A in [0;0]
ExecutionTime = 7.21 s  ClockTime = 8 s

deltaT = 0.005
Time = 0.36
DICPCG:  Solving for C, Initial residual = 0.000135141, Final residual = 9.2269e-07, No Iterations 105
DICPCG:  Solving for M, Initial residual = 0.00318258, Final residual = 4.70654e-10, No Iterations 1
DICPCG:  Solving for A, Initial residual = 4.71391e-09, Final residual = 4.71391e-09, No Iterations 0
C in [3.81704;3.9994]
M in [0;0.733497]
A in [0;0]
ExecutionTime = 7.28 s  ClockTime = 8 s

deltaT = 0.005
Time = 0.365
DICPCG:  Solving for C, Initial residual = 0.000135139, Final residual = 9.21732e-07, No Iterations 105
DICPCG:  Solving for M, Initial residual = 0.00318154, Final residual = 7.15601e-10, No Iterations 1
DICPCG:  Solving for A, Initial residual = 4.77399e-09, Final residual = 4.77399e-09, No Iterations 0
C in [3.81476;3.99939]
M in [0;0.739894]
A in [0;0]
ExecutionTime = 7.35 s  ClockTime = 8 s

deltaT = 0.005
Time = 0.37
DICPCG:  Solving for C, Initial residual = 0.000135476, Final residual = 9.20686e-07, No Iterations 105
DICPCG:  Solving for M, Initial residual = 0.00318048, Final residual = 1.07395e-09, No Iterations 1
DICPCG:  Solving for A, Initial residual = 4.83481e-09, Final residual = 4.83481e-09, No Iterations 0
C in [3.81246;3.99938]
M in [0;0.745922]
A in [0;0]
ExecutionTime = 7.4 s  ClockTime = 8 s

deltaT = 0.005
Time = 0.375
DICPCG:  Solving for C, Initial residual = 0.00013586, Final residual = 9.1949e-07, No Iterations 105
DICPCG:  Solving for M, Initial residual = 0.00317942, Final residual = 1.58222e-09, No Iterations 1
DICPCG:  Solving for A, Initial residual = 4.89639e-09, Final residual = 4.89639e-09, No Iterations 0
C in [3.81014;3.99937]
M in [0;0.751533]
A in [0;0]
ExecutionTime = 7.45 s  ClockTime = 8 s

deltaT = 0.005
Time = 0.38
DICPCG:  Solving for C, Initial residual = 0.000136289, Final residual = 9.17891e-07, No Iterations 105
DICPCG:  Solving for M, Initial residual = 0.00317835, Final residual = 2.27319e-09, No Iterations 1
DICPCG:  Solving for A, Initial residual = 4.95873e-09, Final residual = 4.95873e-09, No Iterations 0
C in [3.80779;3.99936]
M in [0;0.756683]
A in [0;0]
ExecutionTime = 7.52 s  ClockTime = 8 s

deltaT = 0.005
Time = 0.385
DICPCG:  Solving for C, Initial residual = 0.000136759, Final residual = 9.96948e-07, No Iterations 104
DICPCG:  Solving for M, Initial residual = 0.00317727, Final residual = 3.16079e-09, No Iterations 1
DICPCG:  Solving for A, Initial residual = 5.02184e-09, Final residual = 5.02184e-09, No Iterations 0
C in [3.80543;3.99936]
M in [0;0.761336]
A in [0;0]
ExecutionTime = 7.57 s  ClockTime = 8 s

deltaT = 0.005
Time = 0.39
DICPCG:  Solving for C, Initial residual = 0.000137247, Final residual = 9.91407e-07, No Iterations 104
DICPCG:  Solving for M, Initial residual = 0.00317619, Final residual = 4.22125e-09, No Iterations 1
DICPCG:  Solving for A, Initial residual = 5.08573e-09, Final residual = 5.08573e-09, No Iterations 0
C in [3.80305;3.99935]
M in [0;0.765472]
A in [0;0]
ExecutionTime = 7.65 s  ClockTime = 8 s

deltaT = 0.005
Time = 0.395
DICPCG:  Solving for C, Initial residual = 0.000137775, Final residual = 9.85491e-07, No Iterations 104
DICPCG:  Solving for M, Initial residual = 0.0031751, Final residual = 5.38317e-09, No Iterations 1
DICPCG:  Solving for A, Initial residual = 5.15042e-09, Final residual = 5.15042e-09, No Iterations 0
C in [3.80065;3.99934]
M in [0;0.769084]
A in [0;0]
ExecutionTime = 7.72 s  ClockTime = 8 s

deltaT = 0.005
Time = 0.4
DICPCG:  Solving for C, Initial residual = 0.000138312, Final residual = 9.79108e-07, No Iterations 104
DICPCG:  Solving for M, Initial residual = 0.00317401, Final residual = 6.54321e-09, No Iterations 1
DICPCG:  Solving for A, Initial residual = 5.2159e-09, Final residual = 5.2159e-09, No Iterations 0
C in [3.79824;3.99933]
M in [0;0.772183]
A in [0;0]
ExecutionTime = 7.88 s  ClockTime = 8 s

deltaT = 0.005
Time = 0.405
DICPCG:  Solving for C, Initial residual = 0.000138844, Final residual = 9.73389e-07, No Iterations 104
DICPCG:  Solving for M, Initial residual = 0.00317291, Final residual = 7.60595e-09, No Iterations 1
DICPCG:  Solving for A, Initial residual = 5.2822e-09, Final residual = 5.2822e-09, No Iterations 0
C in [3.7958;3.99932]
M in [0;0.774795]
A in [0;0]
ExecutionTime = 7.94 s  ClockTime = 8 s

deltaT = 0.005
Time = 0.41
DICPCG:  Solving for C, Initial residual = 0.000139355, Final residual = 9.68781e-07, No Iterations 104
DICPCG:  Solving for M, Initial residual = 0.00317181, Final residual = 8.5188e-09, No Iterations 1
DICPCG:  Solving for A, Initial residual = 5.34931e-09, Final residual = 5.34931e-09, No Iterations 0
C in [3.79334;3.99932]
M in [0;0.77696]
A in [0;0]
ExecutionTime = 8.03 s  ClockTime = 9 s

deltaT = 0.005
Time = 0.415
DICPCG:  Solving for C, Initial residual = 0.000139832, Final residual = 9.65314e-07, No Iterations 104
DICPCG:  Solving for M, Initial residual = 0.00317069, Final residual = 9.27585e-09, No Iterations 1
DICPCG:  Solving for A, Initial residual = 5.41725e-09, Final residual = 5.41725e-09, No Iterations 0
C in [3.79086;3.99931]
M in [0;0.778731]
A in [0;0]
ExecutionTime = 8.09 s  ClockTime = 9 s

deltaT = 0.005
Time = 0.42
DICPCG:  Solving for C, Initial residual = 0.000140267, Final residual = 9.62875e-07, No Iterations 104
DICPCG:  Solving for M, Initial residual = 0.00316957, Final residual = 9.89774e-09, No Iterations 1
DICPCG:  Solving for A, Initial residual = 5.48603e-09, Final residual = 5.48603e-09, No Iterations 0
C in [3.78836;3.9993]
M in [0;0.780163]
A in [0;0]
ExecutionTime = 8.15 s  ClockTime = 9 s

deltaT = 0.005
Time = 0.425
DICPCG:  Solving for C, Initial residual = 0.000140652, Final residual = 9.60842e-07, No Iterations 104
DICPCG:  Solving for M, Initial residual = 0.00316844, Final residual = 1.04109e-08, No Iterations 1
DICPCG:  Solving for A, Initial residual = 5.55566e-09, Final residual = 5.55566e-09, No Iterations 0
C in [3.78584;3.99929]
M in [0;0.781312]
A in [0;0]
ExecutionTime = 8.21 s  ClockTime = 9 s

deltaT = 0.005
Time = 0.43
DICPCG:  Solving for C, Initial residual = 0.000140987, Final residual = 9.59492e-07, No Iterations 104
DICPCG:  Solving for M, Initial residual = 0.0031673, Final residual = 1.08379e-08, No Iterations 1
DICPCG:  Solving for A, Initial residual = 5.62615e-09, Final residual = 5.62615e-09, No Iterations 0
C in [3.78329;3.99928]
M in [0;0.782232]
A in [0;0]
ExecutionTime = 8.27 s  ClockTime = 9 s

deltaT = 0.005
Time = 0.435
DICPCG:  Solving for C, Initial residual = 0.000141275, Final residual = 9.58802e-07, No Iterations 104
DICPCG:  Solving for M, Initial residual = 0.00316615, Final residual = 1.11959e-08, No Iterations 1
DICPCG:  Solving for A, Initial residual = 5.69751e-09, Final residual = 5.69751e-09, No Iterations 0
C in [3.78071;3.99927]
M in [0;0.782971]
A in [0;0]
ExecutionTime = 8.34 s  ClockTime = 9 s

deltaT = 0.005
Time = 0.44
DICPCG:  Solving for C, Initial residual = 0.00014152, Final residual = 9.57996e-07, No Iterations 104
DICPCG:  Solving for M, Initial residual = 0.00316499, Final residual = 1.14983e-08, No Iterations 1
DICPCG:  Solving for A, Initial residual = 5.76974e-09, Final residual = 5.76974e-09, No Iterations 0
C in [3.77811;3.99926]
M in [0;0.783571]
A in [0;0]
ExecutionTime = 8.39 s  ClockTime = 9 s

deltaT = 0.005
Time = 0.445
DICPCG:  Solving for C, Initial residual = 0.000141729, Final residual = 9.57142e-07, No Iterations 104
DICPCG:  Solving for M, Initial residual = 0.00316381, Final residual = 1.17564e-08, No Iterations 1
DICPCG:  Solving for A, Initial residual = 5.84286e-09, Final residual = 5.84286e-09, No Iterations 0
C in [3.77548;3.99925]
M in [0;0.784065]
A in [0;0]
ExecutionTime = 8.45 s  ClockTime = 9 s

deltaT = 0.005
Time = 0.45
DICPCG:  Solving for C, Initial residual = 0.000141906, Final residual = 9.56323e-07, No Iterations 104
DICPCG:  Solving for M, Initial residual = 0.00316262, Final residual = 1.19796e-08, No Iterations 1
DICPCG:  Solving for A, Initial residual = 5.91688e-09, Final residual = 5.91688e-09, No Iterations 0
C in [3.77283;3.99924]
M in [0;0.784481]
A in [0;0]
ExecutionTime = 8.65 s  ClockTime = 9 s

deltaT = 0.005
Time = 0.455
DICPCG:  Solving for C, Initial residual = 0.00014206, Final residual = 9.5556e-07, No Iterations 104
DICPCG:  Solving for M, Initial residual = 0.00316141, Final residual = 1.21763e-08, No Iterations 1
DICPCG:  Solving for A, Initial residual = 5.99181e-09, Final residual = 5.99181e-09, No Iterations 0
C in [3.77014;3.99924]
M in [0;0.784839]
A in [0;0]
ExecutionTime = 8.72 s  ClockTime = 9 s

deltaT = 0.005
Time = 0.46
DICPCG:  Solving for C, Initial residual = 0.000142195, Final residual = 9.54812e-07, No Iterations 104
DICPCG:  Solving for M, Initial residual = 0.00316019, Final residual = 1.23532e-08, No Iterations 1
DICPCG:  Solving for A, Initial residual = 6.06766e-09, Final residual = 6.06766e-09, No Iterations 0
C in [3.76742;3.99923]
M in [0;0.785157]
A in [0;0]
ExecutionTime = 8.78 s  ClockTime = 9 s

deltaT = 0.005
Time = 0.465
DICPCG:  Solving for C, Initial residual = 0.000142315, Final residual = 9.5403e-07, No Iterations 104
DICPCG:  Solving for M, Initial residual = 0.00315895, Final residual = 1.25159e-08, No Iterations 1
DICPCG:  Solving for A, Initial residual = 6.14444e-09, Final residual = 6.14444e-09, No Iterations 0
C in [3.76467;3.99922]
M in [0;0.785445]
A in [0;0]
ExecutionTime = 8.84 s  ClockTime = 9 s

deltaT = 0.005
Time = 0.47
DICPCG:  Solving for C, Initial residual = 0.000142426, Final residual = 9.5318e-07, No Iterations 104
DICPCG:  Solving for M, Initial residual = 0.0031577, Final residual = 1.26689e-08, No Iterations 1
DICPCG:  Solving for A, Initial residual = 6.22216e-09, Final residual = 6.22216e-09, No Iterations 0
C in [3.76189;3.99921]
M in [0;0.785714]
A in [0;0]
ExecutionTime = 8.9 s  ClockTime = 10 s

deltaT = 0.005
Time = 0.475
DICPCG:  Solving for C, Initial residual = 0.000142529, Final residual = 9.52307e-07, No Iterations 104
DICPCG:  Solving for M, Initial residual = 0.00315643, Final residual = 1.28155e-08, No Iterations 1
DICPCG:  Solving for A, Initial residual = 6.30083e-09, Final residual = 6.30083e-09, No Iterations 0
C in [3.75908;3.9992]
M in [0;0.78597]
A in [0;0]
ExecutionTime = 8.96 s  ClockTime = 10 s

deltaT = 0.005
Time = 0.48
DICPCG:  Solving for C, Initial residual = 0.000142627, Final residual = 9.51388e-07, No Iterations 104
DICPCG:  Solving for M, Initial residual = 0.00315515, Final residual = 1.29585e-08, No Iterations 1
DICPCG:  Solving for A, Initial residual = 6.38047e-09, Final residual = 6.38047e-09, No Iterations 0
C in [3.75624;3.99919]
M in [0;0.786217]
A in [0;0]
ExecutionTime = 9.01 s  ClockTime = 10 s

deltaT = 0.005
Time = 0.485
DICPCG:  Solving for C, Initial residual = 0.000142721, Final residual = 9.504e-07, No Iterations 104
DICPCG:  Solving for M, Initial residual = 0.00315384, Final residual = 1.30998e-08, No Iterations 1
DICPCG:  Solving for A, Initial residual = 6.46107e-09, Final residual = 6.46107e-09, No Iterations 0
C in [3.75336;3.99918]
M in [0;0.786459]
A in [0;0]
ExecutionTime = 9.16 s  ClockTime = 10 s

deltaT = 0.005
Time = 0.49
DICPCG:  Solving for C, Initial residual = 0.000142814, Final residual = 9.49371e-07, No Iterations 104
DICPCG:  Solving for M, Initial residual = 0.00315253, Final residual = 1.3241e-08, No Iterations 1
DICPCG:  Solving for A, Initial residual = 6.54266e-09, Final residual = 6.54266e-09, No Iterations 0
C in [3.75045;3.99917]
M in [0;0.786699]
A in [0;0]
ExecutionTime = 9.22 s  ClockTime = 10 s

deltaT = 0.005
Time = 0.495
DICPCG:  Solving for C, Initial residual = 0.000142905, Final residual = 9.483e-07, No Iterations 104
DICPCG:  Solving for M, Initial residual = 0.00315119, Final residual = 1.33832e-08, No Iterations 1
DICPCG:  Solving for A, Initial residual = 6.62525e-09, Final residual = 6.62525e-09, No Iterations 0
C in [3.74751;3.99916]
M in [0;0.786939]
A in [0;0]
ExecutionTime = 9.28 s  ClockTime = 10 s

deltaT = 0.005
Time = 0.5
DICPCG:  Solving for C, Initial residual = 0.000142996, Final residual = 9.47234e-07, No Iterations 104
DICPCG:  Solving for M, Initial residual = 0.00314984, Final residual = 1.35273e-08, No Iterations 1
DICPCG:  Solving for A, Initial residual = 6.70884e-09, Final residual = 6.70884e-09, No Iterations 0
C in [3.74453;3.99915]
M in [0;0.78718]
A in [0;0]
ExecutionTime = 9.46 s  ClockTime = 10 s

deltaT = 0.005
Time = 0.505
DICPCG:  Solving for C, Initial residual = 0.000143088, Final residual = 9.46234e-07, No Iterations 104
DICPCG:  Solving for M, Initial residual = 0.00314846, Final residual = 1.36741e-08, No Iterations 1
DICPCG:  Solving for A, Initial residual = 6.79345e-09, Final residual = 6.79345e-09, No Iterations 0
C in [3.74152;3.99914]
M in [0;0.787422]
A in [0;0]
ExecutionTime = 9.53 s  ClockTime = 10 s

deltaT = 0.005
Time = 0.51
DICPCG:  Solving for C, Initial residual = 0.000143179, Final residual = 9.45286e-07, No Iterations 104
DICPCG:  Solving for M, Initial residual = 0.00314708, Final residual = 1.3824e-08, No Iterations 1
DICPCG:  Solving for A, Initial residual = 6.87909e-09, Final residual = 6.87909e-09, No Iterations 0
C in [3.73848;3.99913]
M in [0;0.787667]
A in [0;0]
ExecutionTime = 9.6 s  ClockTime = 10 s

deltaT = 0.005
Time = 0.515
DICPCG:  Solving for C, Initial residual = 0.000143271, Final residual = 9.44313e-07, No Iterations 104
DICPCG:  Solving for M, Initial residual = 0.00314567, Final residual = 1.39775e-08, No Iterations 1
DICPCG:  Solving for A, Initial residual = 6.96577e-09, Final residual = 6.96577e-09, No Iterations 0
C in [3.7354;3.99911]
M in [0;0.787916]
A in [0;0]
ExecutionTime = 9.66 s  ClockTime = 10 s

deltaT = 0.005
Time = 0.52
DICPCG:  Solving for C, Initial residual = 0.000143365, Final residual = 9.43324e-07, No Iterations 104
DICPCG:  Solving for M, Initial residual = 0.00314424, Final residual = 1.41351e-08, No Iterations 1
DICPCG:  Solving for A, Initial residual = 7.0535e-09, Final residual = 7.0535e-09, No Iterations 0
C in [3.73228;3.9991]
M in [0;0.788168]
A in [0;0]
ExecutionTime = 9.74 s  ClockTime = 10 s

deltaT = 0.005
Time = 0.525
DICPCG:  Solving for C, Initial residual = 0.000143459, Final residual = 9.42379e-07, No Iterations 104
DICPCG:  Solving for M, Initial residual = 0.0031428, Final residual = 1.42969e-08, No Iterations 1
DICPCG:  Solving for A, Initial residual = 7.14229e-09, Final residual = 7.14229e-09, No Iterations 0
C in [3.72913;3.99909]
M in [0;0.788424]
A in [0;0]
ExecutionTime = 9.8 s  ClockTime = 11 s

deltaT = 0.005
Time = 0.53
DICPCG:  Solving for C, Initial residual = 0.000143554, Final residual = 9.41476e-07, No Iterations 104
DICPCG:  Solving for M, Initial residual = 0.00314134, Final residual = 1.44634e-08, No Iterations 1
DICPCG:  Solving for A, Initial residual = 7.23216e-09, Final residual = 7.23216e-09, No Iterations 0
C in [3.72594;3.99908]
M in [0;0.788683]
A in [0;0]
ExecutionTime = 9.87 s  ClockTime = 11 s

deltaT = 0.005
Time = 0.535
DICPCG:  Solving for C, Initial residual = 0.000143651, Final residual = 9.40557e-07, No Iterations 104
DICPCG:  Solving for M, Initial residual = 0.00313985, Final residual = 1.46347e-08, No Iterations 1
DICPCG:  Solving for A, Initial residual = 7.32312e-09, Final residual = 7.32312e-09, No Iterations 0
C in [3.72272;3.99907]
M in [0;0.788948]
A in [0;0]
ExecutionTime = 9.94 s  ClockTime = 11 s

deltaT = 0.005
Time = 0.54
DICPCG:  Solving for C, Initial residual = 0.000143749, Final residual = 9.39677e-07, No Iterations 104
DICPCG:  Solving for M, Initial residual = 0.00313835, Final residual = 1.48112e-08, No Iterations 1
DICPCG:  Solving for A, Initial residual = 7.41518e-09, Final residual = 7.41518e-09, No Iterations 0
C in [3.71946;3.99906]
M in [0;0.789217]
A in [0;0]
ExecutionTime = 10.04 s  ClockTime = 11 s

deltaT = 0.005
Time = 0.545
DICPCG:  Solving for C, Initial residual = 0.000143849, Final residual = 9.38772e-07, No Iterations 104
DICPCG:  Solving for M, Initial residual = 0.00313683, Final residual = 1.49931e-08, No Iterations 1
DICPCG:  Solving for A, Initial residual = 7.50835e-09, Final residual = 7.50835e-09, No Iterations 0
C in [3.71616;3.99905]
M in [0;0.78949]
A in [0;0]
ExecutionTime = 10.15 s  ClockTime = 11 s

deltaT = 0.005
Time = 0.55
DICPCG:  Solving for C, Initial residual = 0.00014395, Final residual = 9.379e-07, No Iterations 104
DICPCG:  Solving for M, Initial residual = 0.0031353, Final residual = 1.51808e-08, No Iterations 1
DICPCG:  Solving for A, Initial residual = 7.60264e-09, Final residual = 7.60264e-09, No Iterations 0
C in [3.71282;3.99904]
M in [0;0.789768]
A in [0;0]
ExecutionTime = 10.35 s  ClockTime = 11 s

deltaT = 0.005
Time = 0.555
DICPCG:  Solving for C, Initial residual = 0.000144052, Final residual = 9.3708e-07, No Iterations 104
DICPCG:  Solving for M, Initial residual = 0.00313374, Final residual = 1.53743e-08, No Iterations 1
DICPCG:  Solving for A, Initial residual = 7.69807e-09, Final residual = 7.69807e-09, No Iterations 0
C in [3.70945;3.99902]
M in [0;0.790052]
A in [0;0]
ExecutionTime = 10.41 s  ClockTime = 11 s

deltaT = 0.005
Time = 0.56
DICPCG:  Solving for C, Initial residual = 0.000144156, Final residual = 9.36297e-07, No Iterations 104
DICPCG:  Solving for M, Initial residual = 0.00313216, Final residual = 1.55741e-08, No Iterations 1
DICPCG:  Solving for A, Initial residual = 7.79465e-09, Final residual = 7.79465e-09, No Iterations 0
C in [3.70604;3.99901]
M in [0;0.79034]
A in [0;0]
ExecutionTime = 10.47 s  ClockTime = 11 s

deltaT = 0.005
Time = 0.565
[...]
C in [0.172107;3.98404]
M in [0;0.872816]
A in [0;0]
ExecutionTime = 112.84 s  ClockTime = 132 s

deltaT = 0.005
Time = 9.775
DICPCG:  Solving for C, Initial residual = 9.63917e-06, Final residual = 9.55965e-07, No Iterations 45
DICPCG:  Solving for M, Initial residual = 0.000130238, Final residual = 1.36112e-08, No Iterations 1
DICPCG:  Solving for A, Initial residual = 8.14669e-07, Final residual = 8.14669e-07, No Iterations 0
C in [0.172095;3.98404]
M in [0;0.872804]
A in [0;0]
ExecutionTime = 112.88 s  ClockTime = 132 s

deltaT = 0.005
Time = 9.78
DICPCG:  Solving for C, Initial residual = 9.58695e-06, Final residual = 9.54709e-07, No Iterations 45
DICPCG:  Solving for M, Initial residual = 0.000130226, Final residual = 1.36151e-08, No Iterations 1
DICPCG:  Solving for A, Initial residual = 8.14783e-07, Final residual = 8.14783e-07, No Iterations 0
C in [0.172083;3.98404]
M in [0;0.872791]
A in [0;0]
ExecutionTime = 112.92 s  ClockTime = 132 s

deltaT = 0.005
Time = 9.785
DICPCG:  Solving for C, Initial residual = 9.57908e-06, Final residual = 9.86915e-07, No Iterations 44
DICPCG:  Solving for M, Initial residual = 0.000130214, Final residual = 1.36192e-08, No Iterations 1
DICPCG:  Solving for A, Initial residual = 8.14897e-07, Final residual = 8.14897e-07, No Iterations 0
C in [0.172071;3.98404]
M in [0;0.872778]
A in [0;0]
ExecutionTime = 112.96 s  ClockTime = 133 s

deltaT = 0.005
Time = 9.79
DICPCG:  Solving for C, Initial residual = 9.61774e-06, Final residual = 9.47282e-07, No Iterations 45
DICPCG:  Solving for M, Initial residual = 0.000130202, Final residual = 1.36234e-08, No Iterations 1
DICPCG:  Solving for A, Initial residual = 8.1501e-07, Final residual = 8.1501e-07, No Iterations 0
C in [0.172059;3.98404]
M in [0;0.872765]
A in [0;0]
ExecutionTime = 113.01 s  ClockTime = 133 s

deltaT = 0.005
Time = 9.795
DICPCG:  Solving for C, Initial residual = 9.57152e-06, Final residual = 9.54241e-07, No Iterations 45
DICPCG:  Solving for M, Initial residual = 0.00013019, Final residual = 1.36278e-08, No Iterations 1
DICPCG:  Solving for A, Initial residual = 8.15124e-07, Final residual = 8.15124e-07, No Iterations 0
C in [0.172047;3.98404]
M in [0;0.872753]
A in [0;0]
ExecutionTime = 113.05 s  ClockTime = 133 s

deltaT = 0.005
Time = 9.8
DICPCG:  Solving for C, Initial residual = 9.56456e-06, Final residual = 9.54955e-07, No Iterations 45
DICPCG:  Solving for M, Initial residual = 0.000130178, Final residual = 1.36323e-08, No Iterations 1
DICPCG:  Solving for A, Initial residual = 8.15237e-07, Final residual = 8.15237e-07, No Iterations 0
C in [0.172035;3.98404]
M in [0;0.872741]
A in [0;0]
ExecutionTime = 113.26 s  ClockTime = 133 s

deltaT = 0.005
Time = 9.805
DICPCG:  Solving for C, Initial residual = 9.56015e-06, Final residual = 9.54158e-07, No Iterations 45
DICPCG:  Solving for M, Initial residual = 0.000130165, Final residual = 1.36369e-08, No Iterations 1
DICPCG:  Solving for A, Initial residual = 8.1535e-07, Final residual = 8.1535e-07, No Iterations 0
C in [0.172023;3.98404]
M in [0;0.872728]
A in [0;0]
ExecutionTime = 113.32 s  ClockTime = 133 s

deltaT = 0.005
Time = 9.81
DICPCG:  Solving for C, Initial residual = 9.55458e-06, Final residual = 9.71112e-07, No Iterations 44
DICPCG:  Solving for M, Initial residual = 0.000130153, Final residual = 1.36415e-08, No Iterations 1
DICPCG:  Solving for A, Initial residual = 8.15463e-07, Final residual = 8.15463e-07, No Iterations 0
C in [0.172012;3.98404]
M in [0;0.872716]
A in [0;0]
ExecutionTime = 113.42 s  ClockTime = 133 s

deltaT = 0.005
Time = 9.815
DICPCG:  Solving for C, Initial residual = 9.58052e-06, Final residual = 9.86758e-07, No Iterations 44
DICPCG:  Solving for M, Initial residual = 0.00013014, Final residual = 1.36472e-08, No Iterations 1
DICPCG:  Solving for A, Initial residual = 8.15576e-07, Final residual = 8.15576e-07, No Iterations 0
C in [0.172001;3.98404]
M in [0;0.872704]
A in [0;0]
ExecutionTime = 113.48 s  ClockTime = 133 s

deltaT = 0.005
Time = 9.82
DICPCG:  Solving for C, Initial residual = 9.58379e-06, Final residual = 9.45597e-07, No Iterations 45
DICPCG:  Solving for M, Initial residual = 0.000130128, Final residual = 1.36532e-08, No Iterations 1
DICPCG:  Solving for A, Initial residual = 8.15688e-07, Final residual = 8.15688e-07, No Iterations 0
C in [0.171989;3.98404]
M in [0;0.872693]
A in [0;0]
ExecutionTime = 113.53 s  ClockTime = 133 s

deltaT = 0.005
Time = 9.825
DICPCG:  Solving for C, Initial residual = 9.53362e-06, Final residual = 9.94601e-07, No Iterations 44
DICPCG:  Solving for M, Initial residual = 0.000130116, Final residual = 1.3659e-08, No Iterations 1
DICPCG:  Solving for A, Initial residual = 8.15801e-07, Final residual = 8.15801e-07, No Iterations 0
C in [0.171978;3.98404]
M in [0;0.872681]
A in [0;0]
ExecutionTime = 113.58 s  ClockTime = 133 s

deltaT = 0.005
Time = 9.83
DICPCG:  Solving for C, Initial residual = 9.5803e-06, Final residual = 9.88447e-07, No Iterations 44
DICPCG:  Solving for M, Initial residual = 0.000130104, Final residual = 1.3665e-08, No Iterations 1
DICPCG:  Solving for A, Initial residual = 8.15913e-07, Final residual = 8.15913e-07, No Iterations 0
C in [0.171966;3.98404]
M in [0;0.87267]
A in [0;0]
ExecutionTime = 113.63 s  ClockTime = 133 s

deltaT = 0.005
Time = 9.835
DICPCG:  Solving for C, Initial residual = 9.56666e-06, Final residual = 9.89195e-07, No Iterations 44
DICPCG:  Solving for M, Initial residual = 0.000130091, Final residual = 1.36705e-08, No Iterations 1
DICPCG:  Solving for A, Initial residual = 8.16025e-07, Final residual = 8.16025e-07, No Iterations 0
C in [0.171955;3.98403]
M in [0;0.872658]
A in [0;0]
ExecutionTime = 113.67 s  ClockTime = 133 s

deltaT = 0.005
Time = 9.84
DICPCG:  Solving for C, Initial residual = 9.56117e-06, Final residual = 9.96965e-07, No Iterations 44
DICPCG:  Solving for M, Initial residual = 0.000130079, Final residual = 1.36755e-08, No Iterations 1
DICPCG:  Solving for A, Initial residual = 8.16137e-07, Final residual = 8.16137e-07, No Iterations 0
C in [0.171944;3.98403]
M in [0;0.872647]
A in [0;0]
ExecutionTime = 113.72 s  ClockTime = 133 s

deltaT = 0.005
Time = 9.845
DICPCG:  Solving for C, Initial residual = 9.56209e-06, Final residual = 9.47956e-07, No Iterations 45
DICPCG:  Solving for M, Initial residual = 0.000130067, Final residual = 1.368e-08, No Iterations 1
DICPCG:  Solving for A, Initial residual = 8.16249e-07, Final residual = 8.16249e-07, No Iterations 0
C in [0.171932;3.98403]
M in [0;0.872636]
A in [0;0]
ExecutionTime = 113.77 s  ClockTime = 133 s

deltaT = 0.005
Time = 9.85
DICPCG:  Solving for C, Initial residual = 9.50848e-06, Final residual = 9.95026e-07, No Iterations 44
DICPCG:  Solving for M, Initial residual = 0.000130055, Final residual = 1.36854e-08, No Iterations 1
DICPCG:  Solving for A, Initial residual = 8.16361e-07, Final residual = 8.16361e-07, No Iterations 0
C in [0.171921;3.98403]
M in [0;0.872626]
A in [0;0]
ExecutionTime = 113.99 s  ClockTime = 134 s

deltaT = 0.005
Time = 9.855
DICPCG:  Solving for C, Initial residual = 9.54831e-06, Final residual = 9.93492e-07, No Iterations 44
DICPCG:  Solving for M, Initial residual = 0.000130042, Final residual = 1.36901e-08, No Iterations 1
DICPCG:  Solving for A, Initial residual = 8.16473e-07, Final residual = 8.16473e-07, No Iterations 0
C in [0.17191;3.98403]
M in [0;0.872615]
A in [0;0]
ExecutionTime = 114.04 s  ClockTime = 134 s

deltaT = 0.005
Time = 9.86
DICPCG:  Solving for C, Initial residual = 9.54056e-06, Final residual = 9.47618e-07, No Iterations 45
DICPCG:  Solving for M, Initial residual = 0.00013003, Final residual = 1.36947e-08, No Iterations 1
DICPCG:  Solving for A, Initial residual = 8.16584e-07, Final residual = 8.16584e-07, No Iterations 0
C in [0.171899;3.98403]
M in [0;0.872605]
A in [0;0]
ExecutionTime = 114.07 s  ClockTime = 134 s

deltaT = 0.005
Time = 9.865
DICPCG:  Solving for C, Initial residual = 9.48852e-06, Final residual = 9.47812e-07, No Iterations 45
DICPCG:  Solving for M, Initial residual = 0.000130017, Final residual = 1.36985e-08, No Iterations 1
DICPCG:  Solving for A, Initial residual = 8.16695e-07, Final residual = 8.16695e-07, No Iterations 0
C in [0.171888;3.98403]
M in [0;0.872595]
A in [0;0]
ExecutionTime = 114.12 s  ClockTime = 134 s

deltaT = 0.005
Time = 9.87
DICPCG:  Solving for C, Initial residual = 9.47957e-06, Final residual = 9.49502e-07, No Iterations 45
DICPCG:  Solving for M, Initial residual = 0.000130004, Final residual = 1.37016e-08, No Iterations 1
DICPCG:  Solving for A, Initial residual = 8.16806e-07, Final residual = 8.16806e-07, No Iterations 0
C in [0.171877;3.98403]
M in [0;0.872585]
A in [0;0]
ExecutionTime = 114.15 s  ClockTime = 134 s

deltaT = 0.005
Time = 9.875
DICPCG:  Solving for C, Initial residual = 9.4745e-06, Final residual = 9.85219e-07, No Iterations 44
DICPCG:  Solving for M, Initial residual = 0.000129992, Final residual = 1.37037e-08, No Iterations 1
DICPCG:  Solving for A, Initial residual = 8.16917e-07, Final residual = 8.16917e-07, No Iterations 0
C in [0.171867;3.98403]
M in [0;0.872575]
A in [0;0]
ExecutionTime = 114.19 s  ClockTime = 134 s

deltaT = 0.005
Time = 9.88
DICPCG:  Solving for C, Initial residual = 9.50879e-06, Final residual = 9.9733e-07, No Iterations 44
DICPCG:  Solving for M, Initial residual = 0.000129979, Final residual = 1.37049e-08, No Iterations 1
DICPCG:  Solving for A, Initial residual = 8.17028e-07, Final residual = 8.17028e-07, No Iterations 0
C in [0.171856;3.98403]
M in [0;0.872566]
A in [0;0]
ExecutionTime = 114.23 s  ClockTime = 134 s

deltaT = 0.005
Time = 9.885
DICPCG:  Solving for C, Initial residual = 9.51228e-06, Final residual = 9.86486e-07, No Iterations 44
DICPCG:  Solving for M, Initial residual = 0.000129967, Final residual = 1.3705e-08, No Iterations 1
DICPCG:  Solving for A, Initial residual = 8.17139e-07, Final residual = 8.17139e-07, No Iterations 0
C in [0.171845;3.98403]
M in [0;0.872557]
A in [0;0]
ExecutionTime = 114.31 s  ClockTime = 134 s

deltaT = 0.005
Time = 9.89
DICPCG:  Solving for C, Initial residual = 9.49631e-06, Final residual = 9.96058e-07, No Iterations 44
DICPCG:  Solving for M, Initial residual = 0.000129955, Final residual = 1.37045e-08, No Iterations 1
DICPCG:  Solving for A, Initial residual = 8.17249e-07, Final residual = 8.17249e-07, No Iterations 0
C in [0.171834;3.98403]
M in [0;0.872548]
A in [0;0]
ExecutionTime = 114.39 s  ClockTime = 134 s

deltaT = 0.005
Time = 9.895
DICPCG:  Solving for C, Initial residual = 9.49804e-06, Final residual = 9.44753e-07, No Iterations 45
DICPCG:  Solving for M, Initial residual = 0.000129943, Final residual = 1.37037e-08, No Iterations 1
DICPCG:  Solving for A, Initial residual = 8.1736e-07, Final residual = 8.1736e-07, No Iterations 0
C in [0.171823;3.98403]
M in [0;0.872539]
A in [0;0]
ExecutionTime = 114.44 s  ClockTime = 134 s

deltaT = 0.005
Time = 9.9
DICPCG:  Solving for C, Initial residual = 9.44611e-06, Final residual = 9.90576e-07, No Iterations 44
DICPCG:  Solving for M, Initial residual = 0.000129931, Final residual = 1.37021e-08, No Iterations 1
DICPCG:  Solving for A, Initial residual = 8.1747e-07, Final residual = 8.1747e-07, No Iterations 0
C in [0.171813;3.98403]
M in [0;0.872531]
A in [0;0]
ExecutionTime = 114.63 s  ClockTime = 135 s

deltaT = 0.005
Time = 9.905
DICPCG:  Solving for C, Initial residual = 9.484e-06, Final residual = 9.9315e-07, No Iterations 44
DICPCG:  Solving for M, Initial residual = 0.000129919, Final residual = 1.36995e-08, No Iterations 1
DICPCG:  Solving for A, Initial residual = 8.1758e-07, Final residual = 8.1758e-07, No Iterations 0
C in [0.171803;3.98403]
M in [0;0.872522]
A in [0;0]
ExecutionTime = 114.68 s  ClockTime = 135 s

deltaT = 0.005
Time = 9.91
DICPCG:  Solving for C, Initial residual = 9.4798e-06, Final residual = 9.44781e-07, No Iterations 45
DICPCG:  Solving for M, Initial residual = 0.000129907, Final residual = 1.36958e-08, No Iterations 1
DICPCG:  Solving for A, Initial residual = 8.1769e-07, Final residual = 8.1769e-07, No Iterations 0
C in [0.171792;3.98402]
M in [0;0.872514]
A in [0;0]
ExecutionTime = 114.73 s  ClockTime = 135 s

deltaT = 0.005
Time = 9.915
DICPCG:  Solving for C, Initial residual = 9.42972e-06, Final residual = 9.46416e-07, No Iterations 45
DICPCG:  Solving for M, Initial residual = 0.000129896, Final residual = 1.36913e-08, No Iterations 1
DICPCG:  Solving for A, Initial residual = 8.17799e-07, Final residual = 8.17799e-07, No Iterations 0
C in [0.171781;3.98402]
M in [0;0.872507]
A in [0;0]
ExecutionTime = 114.76 s  ClockTime = 135 s

deltaT = 0.005
Time = 9.92
DICPCG:  Solving for C, Initial residual = 9.42415e-06, Final residual = 9.47508e-07, No Iterations 45
DICPCG:  Solving for M, Initial residual = 0.000129884, Final residual = 1.36872e-08, No Iterations 1
DICPCG:  Solving for A, Initial residual = 8.17909e-07, Final residual = 8.17909e-07, No Iterations 0
C in [0.171771;3.98402]
M in [0;0.872499]
A in [0;0]
ExecutionTime = 114.79 s  ClockTime = 135 s

deltaT = 0.005
Time = 9.925
DICPCG:  Solving for C, Initial residual = 9.42078e-06, Final residual = 9.62196e-07, No Iterations 44
DICPCG:  Solving for M, Initial residual = 0.000129873, Final residual = 1.36823e-08, No Iterations 1
DICPCG:  Solving for A, Initial residual = 8.18018e-07, Final residual = 8.18018e-07, No Iterations 0
C in [0.171761;3.98402]
M in [0;0.872492]
A in [0;0]
ExecutionTime = 114.84 s  ClockTime = 135 s

deltaT = 0.005
Time = 9.93
DICPCG:  Solving for C, Initial residual = 9.4416e-06, Final residual = 9.81937e-07, No Iterations 44
DICPCG:  Solving for M, Initial residual = 0.000129861, Final residual = 1.36778e-08, No Iterations 1
DICPCG:  Solving for A, Initial residual = 8.18128e-07, Final residual = 8.18128e-07, No Iterations 0
C in [0.171751;3.98402]
M in [0;0.872485]
A in [0;0]
ExecutionTime = 114.88 s  ClockTime = 135 s

deltaT = 0.005
Time = 9.935
DICPCG:  Solving for C, Initial residual = 9.44839e-06, Final residual = 9.97888e-07, No Iterations 44
DICPCG:  Solving for M, Initial residual = 0.00012985, Final residual = 1.3673e-08, No Iterations 1
DICPCG:  Solving for A, Initial residual = 8.18237e-07, Final residual = 8.18237e-07, No Iterations 0
C in [0.171741;3.98402]
M in [0;0.872478]
A in [0;0]
ExecutionTime = 114.97 s  ClockTime = 135 s

deltaT = 0.005
Time = 9.94
DICPCG:  Solving for C, Initial residual = 9.45666e-06, Final residual = 9.43073e-07, No Iterations 45
DICPCG:  Solving for M, Initial residual = 0.000129838, Final residual = 1.36671e-08, No Iterations 1
DICPCG:  Solving for A, Initial residual = 8.18346e-07, Final residual = 8.18346e-07, No Iterations 0
C in [0.171731;3.98402]
M in [0;0.872472]
A in [0;0]
ExecutionTime = 115 s  ClockTime = 135 s

deltaT = 0.005
Time = 9.945
DICPCG:  Solving for C, Initial residual = 9.40649e-06, Final residual = 9.97816e-07, No Iterations 44
DICPCG:  Solving for M, Initial residual = 0.000129827, Final residual = 1.36608e-08, No Iterations 1
DICPCG:  Solving for A, Initial residual = 8.18455e-07, Final residual = 8.18455e-07, No Iterations 0
C in [0.171721;3.98402]
M in [0;0.872466]
A in [0;0]
ExecutionTime = 115.04 s  ClockTime = 135 s

deltaT = 0.005
Time = 9.95
DICPCG:  Solving for C, Initial residual = 9.44923e-06, Final residual = 9.92107e-07, No Iterations 44
DICPCG:  Solving for M, Initial residual = 0.000129816, Final residual = 1.36541e-08, No Iterations 1
DICPCG:  Solving for A, Initial residual = 8.18563e-07, Final residual = 8.18563e-07, No Iterations 0
C in [0.171711;3.98402]
M in [0;0.87246]
A in [0;0]
ExecutionTime = 115.22 s  ClockTime = 135 s

deltaT = 0.005
Time = 9.955
DICPCG:  Solving for C, Initial residual = 9.44035e-06, Final residual = 9.44067e-07, No Iterations 45
DICPCG:  Solving for M, Initial residual = 0.000129805, Final residual = 1.36467e-08, No Iterations 1
DICPCG:  Solving for A, Initial residual = 8.18672e-07, Final residual = 8.18672e-07, No Iterations 0
C in [0.171701;3.98402]
M in [0;0.872454]
A in [0;0]
ExecutionTime = 115.29 s  ClockTime = 135 s

deltaT = 0.005
Time = 9.96
DICPCG:  Solving for C, Initial residual = 9.39464e-06, Final residual = 9.44737e-07, No Iterations 45
DICPCG:  Solving for M, Initial residual = 0.000129794, Final residual = 1.36381e-08, No Iterations 1
DICPCG:  Solving for A, Initial residual = 8.1878e-07, Final residual = 8.1878e-07, No Iterations 0
C in [0.171691;3.98402]
M in [0;0.872448]
A in [0;0]
ExecutionTime = 115.34 s  ClockTime = 135 s

deltaT = 0.005
Time = 9.965
DICPCG:  Solving for C, Initial residual = 9.38835e-06, Final residual = 9.46339e-07, No Iterations 45
DICPCG:  Solving for M, Initial residual = 0.000129784, Final residual = 1.36288e-08, No Iterations 1
DICPCG:  Solving for A, Initial residual = 8.18889e-07, Final residual = 8.18889e-07, No Iterations 0
C in [0.171681;3.98402]
M in [0;0.872443]
A in [0;0]
ExecutionTime = 115.39 s  ClockTime = 135 s

deltaT = 0.005
Time = 9.97
DICPCG:  Solving for C, Initial residual = 9.38582e-06, Final residual = 9.98151e-07, No Iterations 44
DICPCG:  Solving for M, Initial residual = 0.000129774, Final residual = 1.36183e-08, No Iterations 1
DICPCG:  Solving for A, Initial residual = 8.18997e-07, Final residual = 8.18997e-07, No Iterations 0
C in [0.171672;3.98402]
M in [0;0.872438]
A in [0;0]
ExecutionTime = 115.46 s  ClockTime = 136 s

deltaT = 0.005
Time = 9.975
DICPCG:  Solving for C, Initial residual = 9.4292e-06, Final residual = 9.93998e-07, No Iterations 44
DICPCG:  Solving for M, Initial residual = 0.000129764, Final residual = 1.36065e-08, No Iterations 1
DICPCG:  Solving for A, Initial residual = 8.19105e-07, Final residual = 8.19105e-07, No Iterations 0
C in [0.171662;3.98402]
M in [0;0.872433]
A in [0;0]
ExecutionTime = 115.54 s  ClockTime = 136 s

deltaT = 0.005
Time = 9.98
DICPCG:  Solving for C, Initial residual = 9.42218e-06, Final residual = 9.41949e-07, No Iterations 45
DICPCG:  Solving for M, Initial residual = 0.000129755, Final residual = 1.35935e-08, No Iterations 1
DICPCG:  Solving for A, Initial residual = 8.19212e-07, Final residual = 8.19212e-07, No Iterations 0
C in [0.171652;3.98402]
M in [0;0.872428]
A in [0;0]
ExecutionTime = 115.59 s  ClockTime = 136 s

deltaT = 0.005
Time = 9.985
DICPCG:  Solving for C, Initial residual = 9.37658e-06, Final residual = 9.4445e-07, No Iterations 45
DICPCG:  Solving for M, Initial residual = 0.000129746, Final residual = 1.35793e-08, No Iterations 1
DICPCG:  Solving for A, Initial residual = 8.1932e-07, Final residual = 8.1932e-07, No Iterations 0
C in [0.171643;3.98402]
M in [0;0.872424]
A in [0;0]
ExecutionTime = 115.63 s  ClockTime = 136 s

deltaT = 0.005
Time = 9.99
DICPCG:  Solving for C, Initial residual = 9.37278e-06, Final residual = 9.45121e-07, No Iterations 45
DICPCG:  Solving for M, Initial residual = 0.000129738, Final residual = 1.35638e-08, No Iterations 1
DICPCG:  Solving for A, Initial residual = 8.19428e-07, Final residual = 8.19428e-07, No Iterations 0
C in [0.171634;3.98401]
M in [0;0.87242]
A in [0;0]
ExecutionTime = 115.67 s  ClockTime = 136 s

deltaT = 0.005
Time = 9.995
DICPCG:  Solving for C, Initial residual = 9.37097e-06, Final residual = 9.99414e-07, No Iterations 44
DICPCG:  Solving for M, Initial residual = 0.000129729, Final residual = 1.35493e-08, No Iterations 1
DICPCG:  Solving for A, Initial residual = 8.19535e-07, Final residual = 8.19535e-07, No Iterations 0
C in [0.171625;3.98401]
M in [0;0.872416]
A in [0;0]
ExecutionTime = 115.7 s  ClockTime = 136 s

deltaT = 0.005
Time = 10
DICPCG:  Solving for C, Initial residual = 9.41492e-06, Final residual = 9.93902e-07, No Iterations 44
DICPCG:  Solving for M, Initial residual = 0.00012972, Final residual = 1.35347e-08, No Iterations 1
DICPCG:  Solving for A, Initial residual = 8.19642e-07, Final residual = 8.19642e-07, No Iterations 0
C in [0.171615;3.98401]
M in [0;0.872412]
A in [0;0]
ExecutionTime = 115.86 s  ClockTime = 136 s

End

