/*---------------------------------------------------------------------------*\
| =========                 |                                                 |
| \\      /  F ield         | OpenFOAM: The Open Source CFD Toolbox           |
|  \\    /   O peration     | Version:  2406                                  |
|   \\  /    A nd           | Website:  www.openfoam.com                      |
|    \\/     M anipulation  |                                                 |
\*---------------------------------------------------------------------------*/
Build  : _be01ca78-20240625 OPENFOAM=2406 version=2406
Arch   : "LSB;label=32;scalar=64"
Exec   : inoculumGenerator -patch z0 -nbcells 6
Date   : Jul 19 2025
Time   : 03:45:48
Host   : 86d0898f4e20
PID    : 9370
I/O    : uncollated
Case   : /home/openfoam/biofilmFoam/dev/biofilmFoam/3d-A
nProcs : 1
trapFpe: Floating point exception trapping enabled (FOAM_SIGFPE).
fileModificationChecking : Monitoring run-time modified files using timeStampMaster (fileModificationSkew 5, maxFileModificationPolls 20)
allowSystemOperations : Allowing user-supplied system call operations

// * * * * * * * * * * * * * * * * * * * * * * * * * * * * * * * * * * * * * //

box: [-inf,inf] [-inf,inf] [-inf,inf]

Create time

Create mesh for time = 0

Patch: z0
type            patch;
nFaces          120;
startFace       28560;

76
7
97
73
109
24

6 cells inoculated in system/topoSetDict

End

