/*---------------------------------------------------------------------------*\
| =========                 |                                                 |
| \\      /  F ield         | OpenFOAM: The Open Source CFD Toolbox           |
|  \\    /   O peration     | Version:  2406                                  |
|   \\  /    A nd           | Website:  www.openfoam.com                      |
|    \\/     M anipulation  |                                                 |
\*---------------------------------------------------------------------------*/
Build  : _be01ca78-20240625 OPENFOAM=2406 version=2406
Arch   : "LSB;label=32;scalar=64"
Exec   : blockMesh
Date   : Jul 19 2025
Time   : 03:45:47
Host   : 86d0898f4e20
PID    : 9369
I/O    : uncollated
Case   : /home/openfoam/biofilmFoam/dev/biofilmFoam/3d-A
nProcs : 1
trapFpe: Floating point exception trapping enabled (FOAM_SIGFPE).
fileModificationChecking : Monitoring run-time modified files using timeStampMaster (fileModificationSkew 5, maxFileModificationPolls 20)
allowSystemOperations : Allowing user-supplied system call operations

// * * * * * * * * * * * * * * * * * * * * * * * * * * * * * * * * * * * * * //
Create time

Creating block mesh from "system/blockMeshDict"
--> FOAM IOWarning :
    Found [v1012] 'convertToMeters' entry instead of 'scale' in dictionary "system/blockMeshDict"

    This keyword is 162 months old.

No non-linear block edges defined
No non-planar block faces defined
Creating topology blocks

Creating topology patches - from boundary section

Creating block mesh topology

Check topology

	Basic statistics
		Number of internal faces : 0
		Number of boundary faces : 6
		Number of defined boundary faces : 6
		Number of undefined boundary faces : 0
	Checking patch -> block consistency

Creating block offsets
Creating merge list (topological search)...

Creating polyMesh from blockMesh
Creating patches
Creating cells
Creating points with scale (1 1 1)
    Block 0 cell size :
        i : 1e-05 .. 1e-05
        j : 1.89e-06 .. 1.89e-06
        k : 1e-05 .. 1e-05

No patch pairs to merge

Writing polyMesh with 0 cellZones
----------------
Mesh Information
----------------
  boundingBox: (0 0 0) (0.0012 1.89e-06 0.0012)
  nPoints: 29282
  nCells: 14400
  nFaces: 57840
  nInternalFaces: 28560
----------------
Patches
----------------
  patch 0 (start: 28560 size: 120) name: z0
  patch 1 (start: 28680 size: 120) name: z1
  patch 2 (start: 28800 size: 120) name: x0
  patch 3 (start: 28920 size: 120) name: x1
  patch 4 (start: 29040 size: 14400) name: y0
  patch 5 (start: 43440 size: 14400) name: y1

End

