/*--------------------------------*- C++ -*----------------------------------*\
| =========                 |                                                 |
| \\      /  F ield         | OpenFOAM: The Open Source CFD Toolbox           |
|  \\    /   O peration     | Version:  v2006                                 |
|   \\  /    A nd           | Website:  www.openfoam.com                      |
|    \\/     M anipulation  |                                                 |
\*---------------------------------------------------------------------------*/
FoamFile
{
    version     2.0;
    format      ascii;
    class       dictionary;
    location    "constant";
    object      transportProperties;
}
// * * * * * * * * * * * * * * * * * * * * * * * * * * * * * * * * * * * * * //

d1    1.6e-09;

mmax  40;

c0    2e-03;

mum   1.5e-05;

Yxs   0.045;

ms    3e-05;

Ks    1.5e-05;

eps   1.157407407e-17;

a     4;

b     4;


mu 0.00006944444444;
Y 0.63;
k_1 4.0;
k_4 0.00000462962963;
M_inf 1e04;


// alpha 0.000006388888889;
// beta 0.00006388888889;

alpha 0;
beta 0;

n 2.5;
tau 15e-09; // nm

eta1 0.0000474537037;
eta2 0.00002430555556;
k5 0.7;

E_threshold 0.02;

E_crit 0.0;
eps_disp_death 0.00001157407407;

// D_enzyme 0.7;
D_enzyme 0;

// ************************************************************************* //
