/*--------------------------------*- C++ -*----------------------------------*\
| =========                 |                                                 |
| \\      /  F ield         | OpenFOAM: The Open Source CFD Toolbox           |
|  \\    /   O peration     | Version:  v2006                                 |
|   \\  /    A nd           | Website:  www.openfoam.com                      |
|    \\/     M anipulation  |                                                 |
\*---------------------------------------------------------------------------*/
FoamFile
{
    version     2.0;
    format      ascii;
    class       dictionary;
    location    "constant";
    object      transportProperties;
}
// * * * * * * * * * * * * * * * * * * * * * * * * * * * * * * * * * * * * * //

d1    1.6e-09;

mmax  40;

c0    2e-03;

mum   1.5e-05;

Yxs   0.045;

ms    3e-05;

Ks    1.5e-05;

eps   1e-12;

a     4;

b     4;


mu 6.0;
Y 0.63;
k_1 4.0;
k_4 0.4;
M_inf 1e04;


alpha 0.5520;
beta 5.520;

/* alpha 0;
beta 0; */

n 2.5;
tau 10e-09; // nm

eta1 3.6;



// ************************************************************************* //
