/*--------------------------------*- C++ -*----------------------------------*\
| =========                 |                                                 |
| \\      /  F ield         | OpenFOAM: The Open Source CFD Toolbox           |
|  \\    /   O peration     | Version:  v2006                                 |
|   \\  /    A nd           | Website:  www.openfoam.com                      |
|    \\/     M anipulation  |                                                 |
\*---------------------------------------------------------------------------*/
FoamFile
{
    version     2.0;
    format      ascii;
    class       dictionary;
    location    "constant";
    object      transportProperties;
}
// * * * * * * * * * * * * * * * * * * * * * * * * * * * * * * * * * * * * * //

d1    1.6e-09;

mmax  40;

c0    2e-03;

mum   1.5e-05;

Yxs   0.045;

ms    3e-05;

Ks    1.5e-05;

eps   1.157407407e-17;

a     4;

b     4;


mu 0.00006944444444;
Y 0.63;
mu_e 0.00006944444444;
Y_e 0.8;
k_1 4.0;
k_4 0.00000462962963;
M_inf 3e03;
E_inf 7e03;


// alpha 0.000006388888889;
// beta 0.00006388888889;

alpha 0;
beta 0;

n 2.5;
tau 40e-09; // nm

eta1 0.0000474537037;
eta2 0.00002430555556;
k5 0.7;

E_threshold 0.1;

E_crit 0.2;
eps_disp_death 0.0001289944444;

// D_enzyme 1;
D_enzyme 0;

alpha_lux 0.08316666667;
beta_lux 0.001330666667;

K_lux 194;

gamma_I 0.0002883333333;
K_1 0.0055;

R2_TOT 499.66;

K_I 0.0001666666667;
gamma_Ie 0.000003333333333;

epsilon 1e-10;


// ************************************************************************* //
